
*** ChampSim Multicore Out-of-Order Simulator ***

Warmup Instructions: 5000000
Simulation Instructions: 50000000
Configuration: 1
Number of CPUs: 1
LLC sets: 2048
LLC ways: 16
Off-chip DRAM Channels: 1 Width: 64-bit Data Rate: 1600 MT/s


*** ChampSim Multicore Out-of-Order Simulator ***

Warmup Instructions: 5000000
Simulation Instructions: 50000000
Configuration: 1
Number of CPUs: 1
LLC sets: 2048
LLC ways: 16
Off-chip DRAM Channels: 1 Width: 64-bit Data Rate: 1600 MT/s




*** ChampSim Multicore Out-of-Order Simulator ***

*** ChampSim Multicore Out-of-Order Simulator ***
*** ChampSim Multicore Out-of-Order Simulator ***


Warmup Instructions: 5000000
Simulation Instructions: 50000000
Warmup Instructions: 5000000
Warmup Instructions: 5000000
Configuration: 1
Simulation Instructions: 50000000
Simulation Instructions: 50000000
Number of CPUs: 1
Configuration: 1
Configuration: 1
LLC sets: 2048
Number of CPUs: 1
Number of CPUs: 1
LLC ways: 16
LLC sets: 2048
LLC sets: 2048
LLC ways: 16
LLC ways: 16
Off-chip DRAM Channels: 1 Width: 64-bit Data Rate: 1600 MT/s

Off-chip DRAM Channels: 1 Width: 64-bit Data Rate: 1600 MT/s

Off-chip DRAM Channels: 1 Width: 64-bit Data Rate: 1600 MT/s


*** ChampSim Multicore Out-of-Order Simulator ***

Warmup Instructions: 5000000
Simulation Instructions: 50000000
Configuration: 1
Number of CPUs: 1
LLC sets: 2048
LLC ways: 16
Off-chip DRAM Channels: 1 Width: 64-bit Data Rate: 1600 MT/s



*** ChampSim Multicore Out-of-Order Simulator ***

*** ChampSim Multicore Out-of-Order Simulator ***


Warmup Instructions: 5000000
Warmup Instructions: 5000000
Simulation Instructions: 50000000
Simulation Instructions: 50000000
Configuration: 1
Configuration: 1
Number of CPUs: 1
LLC sets: 2048
LLC ways: 16
Number of CPUs: 1
LLC sets: 2048
LLC ways: 16
Off-chip DRAM Channels: 1 Width: 64-bit Data Rate: 1600 MT/s

Off-chip DRAM Channels: 1 Width: 64-bit Data Rate: 1600 MT/s

*** ChampSim Multicore Out-of-Order Simulator ***


*** ChampSim Multicore Out-of-Order Simulator ***

*** ChampSim Multicore Out-of-Order Simulator ***


Warmup Instructions: 5000000
Simulation Instructions: 50000000
Warmup Instructions: 5000000
Configuration: 1
Simulation Instructions: 50000000
Number of CPUs: 1
Configuration: 1
*** ChampSim Multicore Out-of-Order Simulator ***

LLC sets: 2048
Number of CPUs: 1

LLC sets: 2048
LLC ways: 16
Off-chip DRAM Channels: 1 Width: 64-bit Data Rate: 1600 MT/s



*** ChampSim Multicore Out-of-Order Simulator ***

Warmup Instructions: 5000000
Simulation Instructions: 50000000
Configuration: 1
Number of CPUs: 1
LLC sets: 2048
LLC ways: 16
Off-chip DRAM Channels: 1 Width: 64-bit Data Rate: 1600 MT/s

LLC ways: 16
Warmup Instructions: 5000000
Off-chip DRAM Channels: 1 Width: 64-bit Data Rate: 1600 MT/s

Simulation Instructions: 50000000
Configuration: 1
Number of CPUs: 1
LLC sets: 2048
LLC ways: 16
Off-chip DRAM Channels: 1 Width: 64-bit Data Rate: 1600 MT/s


Warmup Instructions: 5000000

Simulation Instructions: 50000000
Configuration: 1

Number of CPUs: 1
*** ChampSim Multicore Out-of-Order Simulator ***

LLC sets: 2048
LLC ways: 16

*** ChampSim Multicore Out-of-Order Simulator ***


*** ChampSim Multicore Out-of-Order Simulator ***

*** ChampSim Multicore Out-of-Order Simulator ***

Warmup Instructions: 5000000
Simulation Instructions: 50000000
Configuration: 1
Number of CPUs: 1
LLC sets: 2048
LLC ways: 16

Off-chip DRAM Channels: 1 Width: 64-bit Data Rate: 1600 MT/s

Warmup Instructions: 5000000
*** ChampSim Multicore Out-of-Order Simulator ***
Simulation Instructions: 50000000
Configuration: 1

Number of CPUs: 1
Off-chip DRAM Channels: 1 Width: 64-bit Data Rate: 1600 MT/s

LLC sets: 2048
LLC ways: 16
Warmup Instructions: 5000000
Simulation Instructions: 50000000
Configuration: 1

Number of CPUs: 1
Off-chip DRAM Channels: 1 Width: 64-bit Data Rate: 1600 MT/s

LLC sets: 2048
LLC ways: 16
*** ChampSim Multicore Out-of-Order Simulator ***
Off-chip DRAM Channels: 1 Width: 64-bit Data Rate: 1600 MT/s

*** ChampSim Multicore Out-of-Order Simulator ***


Warmup Instructions: 5000000
Simulation Instructions: 50000000
Warmup Instructions: 5000000

Configuration: 1
Simulation Instructions: 50000000
*** ChampSim Multicore Out-of-Order Simulator ***
Configuration: 1

Number of CPUs: 1
LLC sets: 2048
LLC ways: 16
Warmup Instructions: 5000000
Number of CPUs: 1
Simulation Instructions: 50000000
LLC sets: 2048
Configuration: 1
Off-chip DRAM Channels: 1 Width: 64-bit Data Rate: 1600 MT/s

LLC ways: 16
Number of CPUs: 1
LLC sets: 2048
LLC ways: 16
Off-chip DRAM Channels: 1 Width: 64-bit Data Rate: 1600 MT/s

Off-chip DRAM Channels: 1 Width: 64-bit Data Rate: 1600 MT/s


*** ChampSim Multicore Out-of-Order Simulator ***

Warmup Instructions: 5000000
Simulation Instructions: 50000000
Configuration: 1
Number of CPUs: 1
LLC sets: 2048
LLC ways: 16
Off-chip DRAM Channels: 1 Width: 64-bit Data Rate: 1600 MT/s


*** ChampSim Multicore Out-of-Order Simulator ***

Warmup Instructions: 5000000
Simulation Instructions: 50000000
Configuration: 1
Number of CPUs: 1
LLC sets: 2048
LLC ways: 16
Off-chip DRAM Channels: 1 Width: 64-bit Data Rate: 1600 MT/s


*** ChampSim Multicore Out-of-Order Simulator ***

Warmup Instructions: 5000000
Simulation Instructions: 50000000
Configuration: 1
Number of CPUs: 1
LLC sets: 2048
LLC ways: 16
Warmup Instructions: 5000000
Off-chip DRAM Channels: 1 Width: 64-bit Data Rate: 1600 MT/s

Simulation Instructions: 50000000
Configuration: 1
Number of CPUs: 1
LLC sets: 2048
LLC ways: 16
Off-chip DRAM Channels: 1 Width: 64-bit Data Rate: 1600 MT/s

Warmup Instructions: 5000000
Simulation Instructions: 50000000
Configuration: 1
Number of CPUs: 1
LLC sets: 2048
LLC ways: 16
Off-chip DRAM Channels: 1 Width: 64-bit Data Rate: 1600 MT/s


*** ChampSim Multicore Out-of-Order Simulator ***


Warmup Instructions: 5000000
Simulation Instructions: 50000000
Configuration: 1
Number of CPUs: 1
LLC sets: 2048
LLC ways: 16
*** ChampSim Multicore Out-of-Order Simulator ***

Off-chip DRAM Channels: 1 Width: 64-bit Data Rate: 1600 MT/s

Warmup Instructions: 5000000
Simulation Instructions: 50000000
Configuration: 1
Number of CPUs: 1
LLC sets: 2048
LLC ways: 16
Off-chip DRAM Channels: 1 Width: 64-bit Data Rate: 1600 MT/s


*** ChampSim Multicore Out-of-Order Simulator ***

Warmup Instructions: 5000000
Simulation Instructions: 50000000
Configuration: 1
Number of CPUs: 1
LLC sets: 2048
LLC ways: 16
Off-chip DRAM Channels: 1 Width: 64-bit Data Rate: 1600 MT/s



*** ChampSim Multicore Out-of-Order Simulator ***

Warmup Instructions: 5000000
Simulation Instructions: 50000000
Configuration: 1
Number of CPUs: 1
LLC sets: 2048
LLC ways: 16
Off-chip DRAM Channels: 1 Width: 64-bit Data Rate: 1600 MT/s


*** ChampSim Multicore Out-of-Order Simulator ***

Warmup Instructions: 5000000
Simulation Instructions: 50000000
Configuration: 1
Number of CPUs: 1
LLC sets: 2048
LLC ways: 16
Off-chip DRAM Channels: 1 Width: 64-bit Data Rate: 1600 MT/s


*** ChampSim Multicore Out-of-Order Simulator ***

Warmup Instructions: 5000000
Simulation Instructions: 50000000
Configuration: 1
Number of CPUs: 1
LLC sets: 2048
LLC ways: 16
Off-chip DRAM Channels: 1 Width: 64-bit Data Rate: 1600 MT/s


*** ChampSim Multicore Out-of-Order Simulator ***

Warmup Instructions: 5000000
Simulation Instructions: 50000000
Configuration: 1
Number of CPUs: 1
LLC sets: 2048
LLC ways: 16
Off-chip DRAM Channels: 1 Width: 64-bit Data Rate: 1600 MT/s


*** ChampSim Multicore Out-of-Order Simulator ***

Warmup Instructions: 5000000
Simulation Instructions: 50000000
Configuration: 1
Number of CPUs: 1
LLC sets: 2048
LLC ways: 16
Off-chip DRAM Channels: 1 Width: 64-bit Data Rate: 1600 MT/s

*** ChampSim Multicore Out-of-Order Simulator ***


Warmup Instructions: 5000000
Simulation Instructions: 50000000
*** ChampSim Multicore Out-of-Order Simulator ***

Configuration: 1
Number of CPUs: 1
LLC sets: 2048
LLC ways: 16
Warmup Instructions: 5000000
Simulation Instructions: 50000000
Configuration: 1
Number of CPUs: 1
LLC sets: 2048
LLC ways: 16
Off-chip DRAM Channels: 1 Width: 64-bit Data Rate: 1600 MT/s

Off-chip DRAM Channels: 1 Width: 64-bit Data Rate: 1600 MT/s

*** ChampSim Multicore Out-of-Order Simulator ***

Warmup Instructions: 5000000
Simulation Instructions: 50000000
Configuration: 1
Number of CPUs: 1
LLC sets: 2048
LLC ways: 16
Off-chip DRAM Channels: 1 Width: 64-bit Data Rate: 1600 MT/s


*** ChampSim Multicore Out-of-Order Simulator ***

Warmup Instructions: 5000000
Simulation Instructions: 50000000
Configuration: 1
Number of CPUs: 1
LLC sets: 2048
LLC ways: 16
Off-chip DRAM Channels: 1 Width: 64-bit Data Rate: 1600 MT/s


*** ChampSim Multicore Out-of-Order Simulator ***

Warmup Instructions: 5000000
Simulation Instructions: 50000000
Configuration: 1
Number of CPUs: 1
LLC sets: 2048
LLC ways: 16
Off-chip DRAM Channels: 1 Width: 64-bit Data Rate: 1600 MT/s


*** ChampSim Multicore Out-of-Order Simulator ***

Warmup Instructions: 5000000
Simulation Instructions: 50000000
Configuration: 1
Number of CPUs: 1
LLC sets: 2048
LLC ways: 16
Off-chip DRAM Channels: 1 Width: 64-bit Data Rate: 1600 MT/s


*** ChampSim Multicore Out-of-Order Simulator ***

Warmup Instructions: 5000000
Simulation Instructions: 50000000
Configuration: 1
Number of CPUs: 1
LLC sets: 2048
LLC ways: 16
Off-chip DRAM Channels: 1 Width: 64-bit Data Rate: 1600 MT/s


*** ChampSim Multicore Out-of-Order Simulator ***


Warmup Instructions: 5000000
Simulation Instructions: 50000000
*** ChampSim Multicore Out-of-Order Simulator ***
Configuration: 1

Number of CPUs: 1
LLC sets: 2048
LLC ways: 16
Warmup Instructions: 5000000
Simulation Instructions: 50000000
Off-chip DRAM Channels: 1 Width: 64-bit Data Rate: 1600 MT/s

Configuration: 1
Number of CPUs: 1
LLC sets: 2048
LLC ways: 16
Off-chip DRAM Channels: 1 Width: 64-bit Data Rate: 1600 MT/s



*** ChampSim Multicore Out-of-Order Simulator ***
*** ChampSim Multicore Out-of-Order Simulator ***


Warmup Instructions: 5000000
Simulation Instructions: 50000000
Configuration: 1
Number of CPUs: 1
Warmup Instructions: 5000000
LLC sets: 2048
Simulation Instructions: 50000000
LLC ways: 16
Configuration: 1
Number of CPUs: 1
LLC sets: 2048
LLC ways: 16
Off-chip DRAM Channels: 1 Width: 64-bit Data Rate: 1600 MT/s


*** ChampSim Multicore Out-of-Order Simulator ***

Warmup Instructions: 5000000
Simulation Instructions: 50000000
Configuration: 1
Number of CPUs: 1
LLC sets: 2048
LLC ways: 16
Off-chip DRAM Channels: 1 Width: 64-bit Data Rate: 1600 MT/s


*** ChampSim Multicore Out-of-Order Simulator ***


Warmup Instructions: 5000000
Simulation Instructions: 50000000
Configuration: 1
Number of CPUs: 1
LLC sets: 2048
LLC ways: 16

*** ChampSim Multicore Out-of-Order Simulator ***

Warmup Instructions: 5000000
Simulation Instructions: 50000000
Configuration: 1
Number of CPUs: 1
LLC sets: 2048
LLC ways: 16
Off-chip DRAM Channels: 1 Width: 64-bit Data Rate: 1600 MT/s


Off-chip DRAM Channels: 1 Width: 64-bit Data Rate: 1600 MT/s

*** ChampSim Multicore Out-of-Order Simulator ***

Off-chip DRAM Channels: 1 Width: 64-bit Data Rate: 1600 MT/s

Warmup Instructions: 5000000
Simulation Instructions: 50000000
Configuration: 1
Number of CPUs: 1
LLC sets: 2048
LLC ways: 16
Off-chip DRAM Channels: 1 Width: 64-bit Data Rate: 1600 MT/s

*** ChampSim Multicore Out-of-Order Simulator ***


Warmup Instructions: 5000000
Simulation Instructions: 50000000
Configuration: 1
Number of CPUs: 1
LLC sets: 2048
LLC ways: 16

*** ChampSim Multicore Out-of-Order Simulator ***
Off-chip DRAM Channels: 1 Width: 64-bit Data Rate: 1600 MT/s


*** ChampSim Multicore Out-of-Order Simulator ***

Warmup Instructions: 5000000
Warmup Instructions: 5000000
Simulation Instructions: 50000000
Simulation Instructions: 50000000
Configuration: 1
Configuration: 1
Number of CPUs: 1
LLC sets: 2048
Number of CPUs: 1
LLC ways: 16
LLC sets: 2048
LLC ways: 16
Off-chip DRAM Channels: 1 Width: 64-bit Data Rate: 1600 MT/s

Off-chip DRAM Channels: 1 Width: 64-bit Data Rate: 1600 MT/s


*** ChampSim Multicore Out-of-Order Simulator ***

Warmup Instructions: 5000000
Simulation Instructions: 50000000
Configuration: 1
Number of CPUs: 1
LLC sets: 2048
LLC ways: 16
Off-chip DRAM Channels: 1 Width: 64-bit Data Rate: 1600 MT/s

CPU 0 runs /datasets/cs240c-wi22-a00-public/data/Assignment2-gz/libquantum_1735B.trace.gz
Heartbeat CPU 0 instructions: 1000003 cycles: 333345 heartbeat IPC: 2.9999 cumulative IPC: 2.9999 (Simulation time: 0 hr 1 min 48 sec) 
CPU 0 runs /datasets/cs240c-wi22-a00-public/data/Assignment2-gz/libquantum_964B.trace.gz
Heartbeat CPU 0 instructions: 1000001 cycles: 333344 heartbeat IPC: 2.99991 cumulative IPC: 2.99991 (Simulation time: 0 hr 1 min 55 sec) 
CPU 0 runs /datasets/cs240c-wi22-a00-public/data/Assignment2-gz/libquantum_1210B.trace.gz
Heartbeat CPU 0 instructions: 1000003 cycles: 314916 heartbeat IPC: 3.17546 cumulative IPC: 3.17546 (Simulation time: 0 hr 1 min 58 sec) 
CPU 0 runs /datasets/cs240c-wi22-a00-public/data/Assignment2-gz/sphinx3_1339B.trace.gz
Heartbeat CPU 0 instructions: 1000001 cycles: 338437 heartbeat IPC: 2.95476 cumulative IPC: 2.95476 (Simulation time: 0 hr 2 min 15 sec) 
CPU 0 runs /datasets/cs240c-wi22-a00-public/data/Assignment2-gz/calculix_2655B.trace.gz
Heartbeat CPU 0 instructions: 1000003 cycles: 371402 heartbeat IPC: 2.69251 cumulative IPC: 2.69251 (Simulation time: 0 hr 2 min 17 sec) 
CPU 0 runs /datasets/cs240c-wi22-a00-public/data/Assignment2-gz/zeusmp_600B.trace.gz
Heartbeat CPU 0 instructions: 1000000 cycles: 407507 heartbeat IPC: 2.45395 cumulative IPC: 2.45395 (Simulation time: 0 hr 2 min 21 sec) 
CPU 0 runs /datasets/cs240c-wi22-a00-public/data/Assignment2-gz/omnetpp_17B.trace.gz
Heartbeat CPU 0 instructions: 1000000 cycles: 559780 heartbeat IPC: 1.78642 cumulative IPC: 1.78642 (Simulation time: 0 hr 2 min 22 sec) 
CPU 0 runs /datasets/cs240c-wi22-a00-public/data/Assignment2-gz/calculix_2670B.trace.gz
Heartbeat CPU 0 instructions: 1000003 cycles: 520140 heartbeat IPC: 1.92257 cumulative IPC: 1.92257 (Simulation time: 0 hr 2 min 24 sec) 
CPU 0 runs /datasets/cs240c-wi22-a00-public/data/Assignment2-gz/soplex_205B.trace.gz
Heartbeat CPU 0 instructions: 1000000 cycles: 394357 heartbeat IPC: 2.53577 cumulative IPC: 2.53577 (Simulation time: 0 hr 2 min 28 sec) 
CPU 0 runs /datasets/cs240c-wi22-a00-public/data/Assignment2-gz/omnetpp_4B.trace.gz
Heartbeat CPU 0 instructions: 1000001 cycles: 566835 heartbeat IPC: 1.76418 cumulative IPC: 1.76418 (Simulation time: 0 hr 2 min 32 sec) 
CPU 0 runs /datasets/cs240c-wi22-a00-public/data/Assignment2-gz/sphinx3_2520B.trace.gz
Heartbeat CPU 0 instructions: 1000003 cycles: 338265 heartbeat IPC: 2.95627 cumulative IPC: 2.95627 (Simulation time: 0 hr 2 min 33 sec) 
CPU 0 runs /datasets/cs240c-wi22-a00-public/data/Assignment2-gz/zeusmp_300B.trace.gz
Heartbeat CPU 0 instructions: 1000003 cycles: 508391 heartbeat IPC: 1.967 cumulative IPC: 1.967 (Simulation time: 0 hr 2 min 35 sec) 
CPU 0 runs /datasets/cs240c-wi22-a00-public/data/Assignment2-gz/soplex_66B.trace.gz
Heartbeat CPU 0 instructions: 1000003 cycles: 416344 heartbeat IPC: 2.40187 cumulative IPC: 2.40187 (Simulation time: 0 hr 2 min 38 sec) 
CPU 0 runs /datasets/cs240c-wi22-a00-public/data/Assignment2-gz/zeusmp_100B.trace.gz
Heartbeat CPU 0 instructions: 1000002 cycles: 464468 heartbeat IPC: 2.15301 cumulative IPC: 2.15301 (Simulation time: 0 hr 2 min 38 sec) 
CPU 0 runs /datasets/cs240c-wi22-a00-public/data/Assignment2-gz/GemsFDTD_716B.trace.gz
Heartbeat CPU 0 instructions: 1000000 cycles: 415494 heartbeat IPC: 2.40677 cumulative IPC: 2.40677 (Simulation time: 0 hr 2 min 40 sec) 
CPU 0 runs /datasets/cs240c-wi22-a00-public/data/Assignment2-gz/astar_23B.trace.gz
Heartbeat CPU 0 instructions: 1000000 cycles: 360107 heartbeat IPC: 2.77695 cumulative IPC: 2.77695 (Simulation time: 0 hr 2 min 40 sec) 
CPU 0 runs /datasets/cs240c-wi22-a00-public/data/Assignment2-gz/milc_409B.trace.gz
Heartbeat CPU 0 instructions: 1000000 cycles: 402731 heartbeat IPC: 2.48305 cumulative IPC: 2.48305 (Simulation time: 0 hr 2 min 43 sec) 
CPU 0 runs /datasets/cs240c-wi22-a00-public/data/Assignment2-gz/bzip2_281B.trace.gz
Heartbeat CPU 0 instructions: 1000000 cycles: 445723 heartbeat IPC: 2.24355 cumulative IPC: 2.24355 (Simulation time: 0 hr 2 min 43 sec) 
CPU 0 runs /datasets/cs240c-wi22-a00-public/data/Assignment2-gz/milc_744B.trace.gz
Heartbeat CPU 0 instructions: 1000000 cycles: 383399 heartbeat IPC: 2.60825 cumulative IPC: 2.60825 (Simulation time: 0 hr 2 min 47 sec) 
CPU 0 runs /datasets/cs240c-wi22-a00-public/data/Assignment2-gz/bzip2_259B.trace.gz
Heartbeat CPU 0 instructions: 1000002 cycles: 428954 heartbeat IPC: 2.33126 cumulative IPC: 2.33126 (Simulation time: 0 hr 2 min 50 sec) 
CPU 0 runs /datasets/cs240c-wi22-a00-public/data/Assignment2-gz/sphinx3_883B.trace.gz
Heartbeat CPU 0 instructions: 1000003 cycles: 413061 heartbeat IPC: 2.42096 cumulative IPC: 2.42096 (Simulation time: 0 hr 2 min 49 sec) 
CPU 0 runs /datasets/cs240c-wi22-a00-public/data/Assignment2-gz/lbm_1004B.trace.gz
Heartbeat CPU 0 instructions: 1000002 cycles: 391495 heartbeat IPC: 2.55432 cumulative IPC: 2.55432 (Simulation time: 0 hr 2 min 50 sec) 
CPU 0 runs /datasets/cs240c-wi22-a00-public/data/Assignment2-gz/calculix_3812B.trace.gz
Heartbeat CPU 0 instructions: 1000001 cycles: 475279 heartbeat IPC: 2.10403 cumulative IPC: 2.10403 (Simulation time: 0 hr 2 min 51 sec) 
CPU 0 runs /datasets/cs240c-wi22-a00-public/data/Assignment2-gz/perlbench_105B.trace.gz
Heartbeat CPU 0 instructions: 1000000 cycles: 578082 heartbeat IPC: 1.72986 cumulative IPC: 1.72986 (Simulation time: 0 hr 2 min 51 sec) 
CPU 0 runs /datasets/cs240c-wi22-a00-public/data/Assignment2-gz/wrf_1650B.trace.gz
Heartbeat CPU 0 instructions: 1000000 cycles: 514412 heartbeat IPC: 1.94397 cumulative IPC: 1.94397 (Simulation time: 0 hr 2 min 53 sec) 
CPU 0 runs /datasets/cs240c-wi22-a00-public/data/Assignment2-gz/bzip2_183B.trace.gz
Heartbeat CPU 0 instructions: 1000000 cycles: 448069 heartbeat IPC: 2.2318 cumulative IPC: 2.2318 (Simulation time: 0 hr 2 min 54 sec) 
CPU 0 runs /datasets/cs240c-wi22-a00-public/data/Assignment2-gz/lbm_94B.trace.gz
Heartbeat CPU 0 instructions: 1000000 cycles: 422411 heartbeat IPC: 2.36736 cumulative IPC: 2.36736 (Simulation time: 0 hr 2 min 54 sec) 
CPU 0 runs /datasets/cs240c-wi22-a00-public/data/Assignment2-gz/wrf_1212B.trace.gz
Heartbeat CPU 0 instructions: 1000001 cycles: 599253 heartbeat IPC: 1.66875 cumulative IPC: 1.66875 (Simulation time: 0 hr 2 min 54 sec) 
CPU 0 runs /datasets/cs240c-wi22-a00-public/data/Assignment2-gz/astar_163B.trace.gz
Heartbeat CPU 0 instructions: 1000002 cycles: 530774 heartbeat IPC: 1.88404 cumulative IPC: 1.88404 (Simulation time: 0 hr 2 min 56 sec) 
CPU 0 runs /datasets/cs240c-wi22-a00-public/data/Assignment2-gz/soplex_217B.trace.gz
Heartbeat CPU 0 instructions: 1000000 cycles: 437365 heartbeat IPC: 2.28642 cumulative IPC: 2.28642 (Simulation time: 0 hr 2 min 55 sec) 
CPU 0 runs /datasets/cs240c-wi22-a00-public/data/Assignment2-gz/wrf_1228B.trace.gz
Heartbeat CPU 0 instructions: 1000003 cycles: 590333 heartbeat IPC: 1.69396 cumulative IPC: 1.69396 (Simulation time: 0 hr 2 min 57 sec) 
CPU 0 runs /datasets/cs240c-wi22-a00-public/data/Assignment2-gz/lbm_564B.trace.gz
Heartbeat CPU 0 instructions: 1000000 cycles: 390238 heartbeat IPC: 2.56254 cumulative IPC: 2.56254 (Simulation time: 0 hr 2 min 57 sec) 
CPU 0 runs /datasets/cs240c-wi22-a00-public/data/Assignment2-gz/gcc_39B.trace.gz
Heartbeat CPU 0 instructions: 1000000 cycles: 510392 heartbeat IPC: 1.95928 cumulative IPC: 1.95928 (Simulation time: 0 hr 2 min 58 sec) 
CPU 0 runs /datasets/cs240c-wi22-a00-public/data/Assignment2-gz/milc_360B.trace.gz
Heartbeat CPU 0 instructions: 1000001 cycles: 549889 heartbeat IPC: 1.81855 cumulative IPC: 1.81855 (Simulation time: 0 hr 2 min 59 sec) 
CPU 0 runs /datasets/cs240c-wi22-a00-public/data/Assignment2-gz/cactusADM_1495B.trace.gz
Heartbeat CPU 0 instructions: 1000003 cycles: 593354 heartbeat IPC: 1.68534 cumulative IPC: 1.68534 (Simulation time: 0 hr 3 min 3 sec) 
CPU 0 runs /datasets/cs240c-wi22-a00-public/data/Assignment2-gz/perlbench_53B.trace.gz
Heartbeat CPU 0 instructions: 1000000 cycles: 617122 heartbeat IPC: 1.62043 cumulative IPC: 1.62043 (Simulation time: 0 hr 3 min 4 sec) 
CPU 0 runs /datasets/cs240c-wi22-a00-public/data/Assignment2-gz/mcf_46B.trace.gz
Heartbeat CPU 0 instructions: 1000002 cycles: 482126 heartbeat IPC: 2.07415 cumulative IPC: 2.07415 (Simulation time: 0 hr 3 min 6 sec) 
CPU 0 runs /datasets/cs240c-wi22-a00-public/data/Assignment2-gz/cactusADM_734B.trace.gz
Heartbeat CPU 0 instructions: 1000003 cycles: 592365 heartbeat IPC: 1.68815 cumulative IPC: 1.68815 (Simulation time: 0 hr 3 min 9 sec) 
CPU 0 runs /datasets/cs240c-wi22-a00-public/data/Assignment2-gz/leslie3d_1186B.trace.gz
Heartbeat CPU 0 instructions: 1000002 cycles: 557793 heartbeat IPC: 1.79278 cumulative IPC: 1.79278 (Simulation time: 0 hr 3 min 10 sec) 
CPU 0 runs /datasets/cs240c-wi22-a00-public/data/Assignment2-gz/perlbench_135B.trace.gz
Heartbeat CPU 0 instructions: 1000000 cycles: 601490 heartbeat IPC: 1.66254 cumulative IPC: 1.66254 (Simulation time: 0 hr 3 min 10 sec) 
CPU 0 runs /datasets/cs240c-wi22-a00-public/data/Assignment2-gz/cactusADM_1039B.trace.gz
Heartbeat CPU 0 instructions: 1000000 cycles: 595112 heartbeat IPC: 1.68036 cumulative IPC: 1.68036 (Simulation time: 0 hr 3 min 13 sec) 
CPU 0 runs /datasets/cs240c-wi22-a00-public/data/Assignment2-gz/mcf_250B.trace.gz
Heartbeat CPU 0 instructions: 1000000 cycles: 526918 heartbeat IPC: 1.89783 cumulative IPC: 1.89783 (Simulation time: 0 hr 3 min 13 sec) 
CPU 0 runs /datasets/cs240c-wi22-a00-public/data/Assignment2-gz/leslie3d_1116B.trace.gz
Heartbeat CPU 0 instructions: 1000001 cycles: 532936 heartbeat IPC: 1.8764 cumulative IPC: 1.8764 (Simulation time: 0 hr 3 min 15 sec) 
CPU 0 runs /datasets/cs240c-wi22-a00-public/data/Assignment2-gz/GemsFDTD_109B.trace.gz
Heartbeat CPU 0 instructions: 1000002 cycles: 577063 heartbeat IPC: 1.73292 cumulative IPC: 1.73292 (Simulation time: 0 hr 3 min 21 sec) 
CPU 0 runs /datasets/cs240c-wi22-a00-public/data/Assignment2-gz/omnetpp_340B.trace.gz
Heartbeat CPU 0 instructions: 1000001 cycles: 578280 heartbeat IPC: 1.72927 cumulative IPC: 1.72927 (Simulation time: 0 hr 3 min 20 sec) 
CPU 0 runs /datasets/cs240c-wi22-a00-public/data/Assignment2-gz/gcc_13B.trace.gz
Heartbeat CPU 0 instructions: 1000000 cycles: 644728 heartbeat IPC: 1.55104 cumulative IPC: 1.55104 (Simulation time: 0 hr 3 min 22 sec) 
CPU 0 runs /datasets/cs240c-wi22-a00-public/data/Assignment2-gz/leslie3d_94B.trace.gz
Heartbeat CPU 0 instructions: 1000003 cycles: 592147 heartbeat IPC: 1.68877 cumulative IPC: 1.68877 (Simulation time: 0 hr 3 min 21 sec) 
CPU 0 runs /datasets/cs240c-wi22-a00-public/data/Assignment2-gz/GemsFDTD_712B.trace.gz
Heartbeat CPU 0 instructions: 1000003 cycles: 633083 heartbeat IPC: 1.57958 cumulative IPC: 1.57958 (Simulation time: 0 hr 3 min 26 sec) 
Heartbeat CPU 0 instructions: 2000003 cycles: 666677 heartbeat IPC: 3.00001 cumulative IPC: 2.99996 (Simulation time: 0 hr 3 min 30 sec) 
CPU 0 runs /datasets/cs240c-wi22-a00-public/data/Assignment2-gz/gcc_56B.trace.gz
Heartbeat CPU 0 instructions: 1000003 cycles: 954224 heartbeat IPC: 1.04798 cumulative IPC: 1.04798 (Simulation time: 0 hr 3 min 35 sec) 
CPU 0 runs /datasets/cs240c-wi22-a00-public/data/Assignment2-gz/astar_313B.trace.gz
Heartbeat CPU 0 instructions: 1000001 cycles: 678650 heartbeat IPC: 1.47352 cumulative IPC: 1.47352 (Simulation time: 0 hr 3 min 36 sec) 
Heartbeat CPU 0 instructions: 2000001 cycles: 666677 heartbeat IPC: 3 cumulative IPC: 2.99995 (Simulation time: 0 hr 3 min 51 sec) 
Heartbeat CPU 0 instructions: 2000000 cycles: 630173 heartbeat IPC: 3.17201 cumulative IPC: 3.17373 (Simulation time: 0 hr 3 min 52 sec) 
CPU 0 runs /datasets/cs240c-wi22-a00-public/data/Assignment2-gz/mcf_158B.trace.gz
Heartbeat CPU 0 instructions: 1000002 cycles: 496507 heartbeat IPC: 2.01407 cumulative IPC: 2.01407 (Simulation time: 0 hr 3 min 51 sec) 
Heartbeat CPU 0 instructions: 2000001 cycles: 746536 heartbeat IPC: 2.66571 cumulative IPC: 2.67904 (Simulation time: 0 hr 4 min 28 sec) 
Heartbeat CPU 0 instructions: 2000001 cycles: 1039679 heartbeat IPC: 1.92478 cumulative IPC: 1.92367 (Simulation time: 0 hr 4 min 37 sec) 
Heartbeat CPU 0 instructions: 2000002 cycles: 1133971 heartbeat IPC: 1.74158 cumulative IPC: 1.76372 (Simulation time: 0 hr 4 min 41 sec) 
Heartbeat CPU 0 instructions: 2000001 cycles: 814374 heartbeat IPC: 2.45781 cumulative IPC: 2.45588 (Simulation time: 0 hr 4 min 51 sec) 
Heartbeat CPU 0 instructions: 2000001 cycles: 691941 heartbeat IPC: 2.82882 cumulative IPC: 2.89042 (Simulation time: 0 hr 4 min 54 sec) 
Heartbeat CPU 0 instructions: 2000001 cycles: 928928 heartbeat IPC: 2.15304 cumulative IPC: 2.15302 (Simulation time: 0 hr 5 min 3 sec) 
Heartbeat CPU 0 instructions: 2000003 cycles: 1059161 heartbeat IPC: 1.81564 cumulative IPC: 1.88829 (Simulation time: 0 hr 5 min 4 sec) 
Heartbeat CPU 0 instructions: 2000001 cycles: 1135266 heartbeat IPC: 1.75923 cumulative IPC: 1.7617 (Simulation time: 0 hr 5 min 9 sec) 
Heartbeat CPU 0 instructions: 2000002 cycles: 890222 heartbeat IPC: 2.01668 cumulative IPC: 2.24663 (Simulation time: 0 hr 5 min 15 sec) 
Heartbeat CPU 0 instructions: 2000000 cycles: 882610 heartbeat IPC: 2.08386 cumulative IPC: 2.26601 (Simulation time: 0 hr 5 min 17 sec) 
Heartbeat CPU 0 instructions: 3000001 cycles: 989047 heartbeat IPC: 3.10202 cumulative IPC: 3.03322 (Simulation time: 0 hr 5 min 18 sec) 
Heartbeat CPU 0 instructions: 2000003 cycles: 797981 heartbeat IPC: 2.77304 cumulative IPC: 2.50633 (Simulation time: 0 hr 5 min 19 sec) 
Heartbeat CPU 0 instructions: 2000003 cycles: 899728 heartbeat IPC: 2.20263 cumulative IPC: 2.2229 (Simulation time: 0 hr 5 min 22 sec) 
Heartbeat CPU 0 instructions: 2000000 cycles: 735301 heartbeat IPC: 2.51866 cumulative IPC: 2.71997 (Simulation time: 0 hr 5 min 24 sec) 
Heartbeat CPU 0 instructions: 2000001 cycles: 721009 heartbeat IPC: 2.77084 cumulative IPC: 2.77389 (Simulation time: 0 hr 5 min 25 sec) 
Heartbeat CPU 0 instructions: 2000003 cycles: 830875 heartbeat IPC: 2.40744 cumulative IPC: 2.4071 (Simulation time: 0 hr 5 min 27 sec) 
Heartbeat CPU 0 instructions: 2000000 cycles: 821532 heartbeat IPC: 2.44815 cumulative IPC: 2.43448 (Simulation time: 0 hr 5 min 26 sec) 
Heartbeat CPU 0 instructions: 2000001 cycles: 766759 heartbeat IPC: 2.60852 cumulative IPC: 2.60838 (Simulation time: 0 hr 5 min 27 sec) 
Heartbeat CPU 0 instructions: 2000002 cycles: 949743 heartbeat IPC: 2.10764 cumulative IPC: 2.10583 (Simulation time: 0 hr 5 min 31 sec) 
Heartbeat CPU 0 instructions: 2000002 cycles: 842809 heartbeat IPC: 2.34486 cumulative IPC: 2.37302 (Simulation time: 0 hr 5 min 32 sec) 
Heartbeat CPU 0 instructions: 2000003 cycles: 861405 heartbeat IPC: 2.3124 cumulative IPC: 2.32179 (Simulation time: 0 hr 5 min 33 sec) 
Heartbeat CPU 0 instructions: 2000002 cycles: 1100530 heartbeat IPC: 1.96003 cumulative IPC: 1.81731 (Simulation time: 0 hr 5 min 37 sec) 
Heartbeat CPU 0 instructions: 2000003 cycles: 1099779 heartbeat IPC: 1.81855 cumulative IPC: 1.81855 (Simulation time: 0 hr 5 min 42 sec) 
Heartbeat CPU 0 instructions: 2000003 cycles: 1060018 heartbeat IPC: 1.88949 cumulative IPC: 1.88676 (Simulation time: 0 hr 5 min 45 sec) 
Heartbeat CPU 0 instructions: 2000001 cycles: 1164382 heartbeat IPC: 1.70561 cumulative IPC: 1.71765 (Simulation time: 0 hr 5 min 45 sec) 
Heartbeat CPU 0 instructions: 3000003 cycles: 945982 heartbeat IPC: 3.16648 cumulative IPC: 3.17131 (Simulation time: 0 hr 5 min 47 sec) 
Heartbeat CPU 0 instructions: 2000003 cycles: 785321 heartbeat IPC: 2.53112 cumulative IPC: 2.54673 (Simulation time: 0 hr 5 min 46 sec) 
Heartbeat CPU 0 instructions: 2000000 cycles: 1198243 heartbeat IPC: 1.66948 cumulative IPC: 1.66911 (Simulation time: 0 hr 5 min 48 sec) 
Heartbeat CPU 0 instructions: 2000000 cycles: 1028660 heartbeat IPC: 1.94459 cumulative IPC: 1.94428 (Simulation time: 0 hr 5 min 49 sec) 
Heartbeat CPU 0 instructions: 3000000 cycles: 1000009 heartbeat IPC: 3.00001 cumulative IPC: 2.99997 (Simulation time: 0 hr 5 min 52 sec) 
Heartbeat CPU 0 instructions: 2000001 cycles: 782981 heartbeat IPC: 2.55437 cumulative IPC: 2.55434 (Simulation time: 0 hr 5 min 51 sec) 
Heartbeat CPU 0 instructions: 2000002 cycles: 1020757 heartbeat IPC: 1.95939 cumulative IPC: 1.95933 (Simulation time: 0 hr 5 min 53 sec) 
Heartbeat CPU 0 instructions: 2000001 cycles: 951159 heartbeat IPC: 1.98772 cumulative IPC: 2.1027 (Simulation time: 0 hr 5 min 59 sec) 
Heartbeat CPU 0 instructions: 2000002 cycles: 967562 heartbeat IPC: 2.06 cumulative IPC: 2.06705 (Simulation time: 0 hr 5 min 59 sec) 
Heartbeat CPU 0 instructions: 2000000 cycles: 812709 heartbeat IPC: 2.56214 cumulative IPC: 2.46091 (Simulation time: 0 hr 6 min 1 sec) 
Heartbeat CPU 0 instructions: 2000001 cycles: 1255808 heartbeat IPC: 1.56572 cumulative IPC: 1.5926 (Simulation time: 0 hr 6 min 3 sec) 
Heartbeat CPU 0 instructions: 2000001 cycles: 1185295 heartbeat IPC: 1.68654 cumulative IPC: 1.68734 (Simulation time: 0 hr 6 min 6 sec) 
Heartbeat CPU 0 instructions: 2000000 cycles: 1186182 heartbeat IPC: 1.68682 cumulative IPC: 1.68608 (Simulation time: 0 hr 6 min 10 sec) 
Heartbeat CPU 0 instructions: 2000000 cycles: 1212073 heartbeat IPC: 1.63778 cumulative IPC: 1.65007 (Simulation time: 0 hr 6 min 15 sec) 
Heartbeat CPU 0 instructions: 2000002 cycles: 1206641 heartbeat IPC: 1.62735 cumulative IPC: 1.6575 (Simulation time: 0 hr 6 min 29 sec) 
Heartbeat CPU 0 instructions: 2000002 cycles: 1190036 heartbeat IPC: 1.68089 cumulative IPC: 1.68062 (Simulation time: 0 hr 6 min 30 sec) 
Heartbeat CPU 0 instructions: 2000003 cycles: 1066398 heartbeat IPC: 1.87455 cumulative IPC: 1.87548 (Simulation time: 0 hr 6 min 30 sec) 
Heartbeat CPU 0 instructions: 2000000 cycles: 1162467 heartbeat IPC: 1.71178 cumulative IPC: 1.72048 (Simulation time: 0 hr 6 min 34 sec) 
Heartbeat CPU 0 instructions: 2000003 cycles: 1154104 heartbeat IPC: 1.73298 cumulative IPC: 1.73295 (Simulation time: 0 hr 6 min 36 sec) 
Heartbeat CPU 0 instructions: 2000000 cycles: 1204525 heartbeat IPC: 1.54623 cumulative IPC: 1.66041 (Simulation time: 0 hr 6 min 40 sec) 
Heartbeat CPU 0 instructions: 3000002 cycles: 1121180 heartbeat IPC: 2.6692 cumulative IPC: 2.67575 (Simulation time: 0 hr 6 min 42 sec) 
Heartbeat CPU 0 instructions: 2000003 cycles: 1028720 heartbeat IPC: 1.99282 cumulative IPC: 1.94417 (Simulation time: 0 hr 6 min 41 sec) 
Heartbeat CPU 0 instructions: 2000001 cycles: 1257217 heartbeat IPC: 1.63268 cumulative IPC: 1.59082 (Simulation time: 0 hr 6 min 43 sec) 
Heartbeat CPU 0 instructions: 3000001 cycles: 1769190 heartbeat IPC: 1.57426 cumulative IPC: 1.69569 (Simulation time: 0 hr 6 min 50 sec) 
Heartbeat CPU 0 instructions: 3000001 cycles: 1559976 heartbeat IPC: 1.92198 cumulative IPC: 1.92311 (Simulation time: 0 hr 6 min 53 sec) 
Heartbeat CPU 0 instructions: 2000000 cycles: 1266011 heartbeat IPC: 1.57995 cumulative IPC: 1.57977 (Simulation time: 0 hr 6 min 57 sec) 
Heartbeat CPU 0 instructions: 2000001 cycles: 1898520 heartbeat IPC: 1.05899 cumulative IPC: 1.05345 (Simulation time: 0 hr 7 min 11 sec) 
Heartbeat CPU 0 instructions: 4000000 cycles: 1290772 heartbeat IPC: 3.31427 cumulative IPC: 3.09892 (Simulation time: 0 hr 7 min 10 sec) 
Heartbeat CPU 0 instructions: 2000003 cycles: 1269566 heartbeat IPC: 1.69229 cumulative IPC: 1.57534 (Simulation time: 0 hr 7 min 15 sec) 
Heartbeat CPU 0 instructions: 3000003 cycles: 1221893 heartbeat IPC: 2.45388 cumulative IPC: 2.45521 (Simulation time: 0 hr 7 min 25 sec) 
Heartbeat CPU 0 instructions: 3000000 cycles: 1081973 heartbeat IPC: 2.56389 cumulative IPC: 2.77271 (Simulation time: 0 hr 7 min 29 sec) 
Heartbeat CPU 0 instructions: 3000002 cycles: 1602081 heartbeat IPC: 1.84189 cumulative IPC: 1.87257 (Simulation time: 0 hr 7 min 30 sec) 
Heartbeat CPU 0 instructions: 3000003 cycles: 1393617 heartbeat IPC: 2.15198 cumulative IPC: 2.15267 (Simulation time: 0 hr 7 min 37 sec) 
Heartbeat CPU 0 instructions: 2000002 cycles: 992128 heartbeat IPC: 2.01767 cumulative IPC: 2.01587 (Simulation time: 0 hr 7 min 46 sec) 
Heartbeat CPU 0 instructions: 4000000 cycles: 1260334 heartbeat IPC: 3.18114 cumulative IPC: 3.17376 (Simulation time: 0 hr 7 min 48 sec) 
Heartbeat CPU 0 instructions: 3000003 cycles: 1181536 heartbeat IPC: 2.24098 cumulative IPC: 2.53907 (Simulation time: 0 hr 7 min 48 sec) 
Heartbeat CPU 0 instructions: 3000001 cycles: 1722599 heartbeat IPC: 1.70261 cumulative IPC: 1.74156 (Simulation time: 0 hr 7 min 51 sec) 
Heartbeat CPU 0 instructions: 3000000 cycles: 1286935 heartbeat IPC: 2.19269 cumulative IPC: 2.33112 (Simulation time: 0 hr 7 min 54 sec) 
Heartbeat CPU 0 instructions: 4000000 cycles: 1333342 heartbeat IPC: 3 cumulative IPC: 2.99998 (Simulation time: 0 hr 7 min 54 sec) 
Heartbeat CPU 0 instructions: 3000003 cycles: 1294919 heartbeat IPC: 2.11244 cumulative IPC: 2.31675 (Simulation time: 0 hr 7 min 55 sec) 
Heartbeat CPU 0 instructions: 3000000 cycles: 1248969 heartbeat IPC: 2.21735 cumulative IPC: 2.40198 (Simulation time: 0 hr 8 min 2 sec) 
Heartbeat CPU 0 instructions: 3000002 cycles: 1314517 heartbeat IPC: 2.41086 cumulative IPC: 2.28221 (Simulation time: 0 hr 8 min 5 sec) 
Heartbeat CPU 0 instructions: 3000001 cycles: 1150170 heartbeat IPC: 2.60817 cumulative IPC: 2.60831 (Simulation time: 0 hr 8 min 9 sec) 
Heartbeat CPU 0 instructions: 3000003 cycles: 1252413 heartbeat IPC: 2.44138 cumulative IPC: 2.39538 (Simulation time: 0 hr 8 min 10 sec) 
Heartbeat CPU 0 instructions: 3000000 cycles: 1079960 heartbeat IPC: 2.78589 cumulative IPC: 2.77788 (Simulation time: 0 hr 8 min 11 sec) 
Heartbeat CPU 0 instructions: 3000001 cycles: 1287146 heartbeat IPC: 2.34884 cumulative IPC: 2.33074 (Simulation time: 0 hr 8 min 17 sec) 
Heartbeat CPU 0 instructions: 3000002 cycles: 1425613 heartbeat IPC: 2.10141 cumulative IPC: 2.10436 (Simulation time: 0 hr 8 min 21 sec) 
Heartbeat CPU 0 instructions: 3000001 cycles: 1726618 heartbeat IPC: 1.77861 cumulative IPC: 1.7375 (Simulation time: 0 hr 8 min 20 sec) 
Heartbeat CPU 0 instructions: 3000003 cycles: 1662911 heartbeat IPC: 1.28156 cumulative IPC: 1.80407 (Simulation time: 0 hr 8 min 23 sec) 
Heartbeat CPU 0 instructions: 3000000 cycles: 1708674 heartbeat IPC: 1.64434 cumulative IPC: 1.75575 (Simulation time: 0 hr 8 min 32 sec) 
Heartbeat CPU 0 instructions: 3000002 cycles: 1589730 heartbeat IPC: 1.88782 cumulative IPC: 1.88711 (Simulation time: 0 hr 8 min 34 sec) 
Heartbeat CPU 0 instructions: 3000000 cycles: 1360072 heartbeat IPC: 2.12833 cumulative IPC: 2.20577 (Simulation time: 0 hr 8 min 34 sec) 
Heartbeat CPU 0 instructions: 3000001 cycles: 1797630 heartbeat IPC: 1.66837 cumulative IPC: 1.66886 (Simulation time: 0 hr 8 min 35 sec) 
Heartbeat CPU 0 instructions: 3000002 cycles: 1175571 heartbeat IPC: 2.56246 cumulative IPC: 2.55195 (Simulation time: 0 hr 8 min 37 sec) 
Heartbeat CPU 0 instructions: 3000001 cycles: 1649612 heartbeat IPC: 1.81873 cumulative IPC: 1.81861 (Simulation time: 0 hr 8 min 45 sec) 
Heartbeat CPU 0 instructions: 3000001 cycles: 1546521 heartbeat IPC: 1.93102 cumulative IPC: 1.93984 (Simulation time: 0 hr 8 min 46 sec) 
Heartbeat CPU 0 instructions: 3000000 cycles: 1483770 heartbeat IPC: 1.9372 cumulative IPC: 2.02188 (Simulation time: 0 hr 8 min 48 sec) 
Heartbeat CPU 0 instructions: 3000002 cycles: 1529819 heartbeat IPC: 1.9644 cumulative IPC: 1.96102 (Simulation time: 0 hr 8 min 48 sec) 
Heartbeat CPU 0 instructions: 3000001 cycles: 1174398 heartbeat IPC: 2.55482 cumulative IPC: 2.5545 (Simulation time: 0 hr 8 min 48 sec) 
Heartbeat CPU 0 instructions: 4000000 cycles: 1487470 heartbeat IPC: 2.73007 cumulative IPC: 2.68913 (Simulation time: 0 hr 9 min 0 sec) 
Heartbeat CPU 0 instructions: 3000000 cycles: 1211869 heartbeat IPC: 2.50526 cumulative IPC: 2.47552 (Simulation time: 0 hr 9 min 2 sec) 
Heartbeat CPU 0 instructions: 3000001 cycles: 1457648 heartbeat IPC: 1.97438 cumulative IPC: 2.05811 (Simulation time: 0 hr 9 min 3 sec) 
Heartbeat CPU 0 instructions: 3000002 cycles: 1912368 heartbeat IPC: 1.52309 cumulative IPC: 1.56874 (Simulation time: 0 hr 9 min 7 sec) 
Heartbeat CPU 0 instructions: 3000003 cycles: 1778084 heartbeat IPC: 1.68694 cumulative IPC: 1.68721 (Simulation time: 0 hr 9 min 11 sec) 
Heartbeat CPU 0 instructions: 4000000 cycles: 2081696 heartbeat IPC: 1.91674 cumulative IPC: 1.92151 (Simulation time: 0 hr 9 min 11 sec) 
Heartbeat CPU 0 instructions: 4000000 cycles: 2334084 heartbeat IPC: 1.77024 cumulative IPC: 1.71373 (Simulation time: 0 hr 9 min 11 sec) 
Heartbeat CPU 0 instructions: 5000000 cycles: 1592498 heartbeat IPC: 3.31427 cumulative IPC: 3.13972 (Simulation time: 0 hr 9 min 14 sec) 

Warmup complete CPU 0 instructions: 5000004 cycles: 1592499 (Simulation time: 0 hr 9 min 14 sec) 

Heartbeat CPU 0 instructions: 3000000 cycles: 1836606 heartbeat IPC: 1.6012 cumulative IPC: 1.63345 (Simulation time: 0 hr 9 min 19 sec) 
Heartbeat CPU 0 instructions: 3000003 cycles: 1779362 heartbeat IPC: 1.68583 cumulative IPC: 1.686 (Simulation time: 0 hr 9 min 27 sec) 
Heartbeat CPU 0 instructions: 3000003 cycles: 1785063 heartbeat IPC: 1.6806 cumulative IPC: 1.68061 (Simulation time: 0 hr 9 min 40 sec) 
Heartbeat CPU 0 instructions: 3000002 cycles: 1854530 heartbeat IPC: 1.54347 cumulative IPC: 1.61766 (Simulation time: 0 hr 9 min 40 sec) 
Heartbeat CPU 0 instructions: 3000003 cycles: 1600517 heartbeat IPC: 1.87224 cumulative IPC: 1.8744 (Simulation time: 0 hr 9 min 46 sec) 
Heartbeat CPU 0 instructions: 3000000 cycles: 1730667 heartbeat IPC: 1.73441 cumulative IPC: 1.73344 (Simulation time: 0 hr 9 min 47 sec) 
Heartbeat CPU 0 instructions: 3000000 cycles: 1735178 heartbeat IPC: 2.09222 cumulative IPC: 1.72893 (Simulation time: 0 hr 9 min 49 sec) 
Heartbeat CPU 0 instructions: 4000000 cycles: 1526801 heartbeat IPC: 2.24806 cumulative IPC: 2.61986 (Simulation time: 0 hr 9 min 50 sec) 
Heartbeat CPU 0 instructions: 3000001 cycles: 1760251 heartbeat IPC: 1.67285 cumulative IPC: 1.7043 (Simulation time: 0 hr 9 min 51 sec) 
Heartbeat CPU 0 instructions: 5000000 cycles: 1576820 heartbeat IPC: 3.1597 cumulative IPC: 3.17094 (Simulation time: 0 hr 9 min 55 sec) 

Warmup complete CPU 0 instructions: 5000004 cycles: 1576821 (Simulation time: 0 hr 9 min 55 sec) 

Heartbeat CPU 0 instructions: 4000000 cycles: 2087846 heartbeat IPC: 2.0586 cumulative IPC: 1.91585 (Simulation time: 0 hr 9 min 55 sec) 
Heartbeat CPU 0 instructions: 5000001 cycles: 1666677 heartbeat IPC: 2.99999 cumulative IPC: 2.99998 (Simulation time: 0 hr 9 min 58 sec) 

Warmup complete CPU 0 instructions: 5000001 cycles: 1666677 (Simulation time: 0 hr 9 min 58 sec) 

Heartbeat CPU 0 instructions: 4000000 cycles: 1858062 heartbeat IPC: 2.1531 cumulative IPC: 2.15278 (Simulation time: 0 hr 10 min 0 sec) 
Heartbeat CPU 0 instructions: 4000000 cycles: 1629601 heartbeat IPC: 2.45273 cumulative IPC: 2.45459 (Simulation time: 0 hr 10 min 1 sec) 
Heartbeat CPU 0 instructions: 3000002 cycles: 1512142 heartbeat IPC: 2.06858 cumulative IPC: 1.98394 (Simulation time: 0 hr 10 min 3 sec) 
Heartbeat CPU 0 instructions: 3000000 cycles: 1851620 heartbeat IPC: 1.54537 cumulative IPC: 1.6202 (Simulation time: 0 hr 10 min 6 sec) 
Heartbeat CPU 0 instructions: 4000000 cycles: 1633291 heartbeat IPC: 2.95532 cumulative IPC: 2.44904 (Simulation time: 0 hr 10 min 10 sec) 
Heartbeat CPU 0 instructions: 4000000 cycles: 1519954 heartbeat IPC: 2.95492 cumulative IPC: 2.63166 (Simulation time: 0 hr 10 min 22 sec) 
Heartbeat CPU 0 instructions: 4000000 cycles: 1744228 heartbeat IPC: 2.18678 cumulative IPC: 2.29328 (Simulation time: 0 hr 10 min 26 sec) 
Heartbeat CPU 0 instructions: 4000000 cycles: 2291806 heartbeat IPC: 1.75683 cumulative IPC: 1.74535 (Simulation time: 0 hr 10 min 29 sec) 
Heartbeat CPU 0 instructions: 3000001 cycles: 2885884 heartbeat IPC: 1.0128 cumulative IPC: 1.03954 (Simulation time: 0 hr 10 min 40 sec) 
Heartbeat CPU 0 instructions: 4000000 cycles: 1685678 heartbeat IPC: 2.50921 cumulative IPC: 2.37293 (Simulation time: 0 hr 10 min 43 sec) 
Heartbeat CPU 0 instructions: 4000000 cycles: 1753062 heartbeat IPC: 2.28026 cumulative IPC: 2.28172 (Simulation time: 0 hr 10 min 45 sec) 
Heartbeat CPU 0 instructions: 4000000 cycles: 1533552 heartbeat IPC: 2.60836 cumulative IPC: 2.60832 (Simulation time: 0 hr 10 min 45 sec) 
Heartbeat CPU 0 instructions: 4000000 cycles: 1637602 heartbeat IPC: 2.59612 cumulative IPC: 2.4426 (Simulation time: 0 hr 10 min 46 sec) 
Heartbeat CPU 0 instructions: 3000000 cycles: 1898497 heartbeat IPC: 1.58106 cumulative IPC: 1.5802 (Simulation time: 0 hr 10 min 48 sec) 
Heartbeat CPU 0 instructions: 4000000 cycles: 1686732 heartbeat IPC: 2.28434 cumulative IPC: 2.37145 (Simulation time: 0 hr 10 min 47 sec) 
Heartbeat CPU 0 instructions: 3000003 cycles: 1947014 heartbeat IPC: 1.47613 cumulative IPC: 1.54082 (Simulation time: 0 hr 10 min 51 sec) 
Heartbeat CPU 0 instructions: 4000000 cycles: 1441422 heartbeat IPC: 2.76654 cumulative IPC: 2.77504 (Simulation time: 0 hr 10 min 55 sec) 
Heartbeat CPU 0 instructions: 4000000 cycles: 2306048 heartbeat IPC: 1.72583 cumulative IPC: 1.73457 (Simulation time: 0 hr 11 min 1 sec) 
Heartbeat CPU 0 instructions: 4000000 cycles: 1895811 heartbeat IPC: 2.12676 cumulative IPC: 2.10992 (Simulation time: 0 hr 11 min 4 sec) 
Heartbeat CPU 0 instructions: 5000003 cycles: 1860159 heartbeat IPC: 2.68321 cumulative IPC: 2.68794 (Simulation time: 0 hr 11 min 10 sec) 

Warmup complete CPU 0 instructions: 5000003 cycles: 1860159 (Simulation time: 0 hr 11 min 10 sec) 

Heartbeat CPU 0 instructions: 4000000 cycles: 1722583 heartbeat IPC: 2.75854 cumulative IPC: 2.32209 (Simulation time: 0 hr 11 min 19 sec) 
Heartbeat CPU 0 instructions: 5000000 cycles: 2602077 heartbeat IPC: 1.92167 cumulative IPC: 1.92154 (Simulation time: 0 hr 11 min 20 sec) 

Warmup complete CPU 0 instructions: 5000001 cycles: 2602078 (Simulation time: 0 hr 11 min 20 sec) 

Heartbeat CPU 0 instructions: 4000000 cycles: 1565781 heartbeat IPC: 2.56272 cumulative IPC: 2.55464 (Simulation time: 0 hr 11 min 21 sec) 
Heartbeat CPU 0 instructions: 4000000 cycles: 2119462 heartbeat IPC: 1.88774 cumulative IPC: 1.88727 (Simulation time: 0 hr 11 min 23 sec) 
Heartbeat CPU 0 instructions: 4000000 cycles: 2443121 heartbeat IPC: 1.2817 cumulative IPC: 1.63725 (Simulation time: 0 hr 11 min 25 sec) 
Heartbeat CPU 0 instructions: 4000000 cycles: 2319463 heartbeat IPC: 1.63723 cumulative IPC: 1.72454 (Simulation time: 0 hr 11 min 26 sec) 
Heartbeat CPU 0 instructions: 4000000 cycles: 2396228 heartbeat IPC: 1.67057 cumulative IPC: 1.66929 (Simulation time: 0 hr 11 min 31 sec) 
Heartbeat CPU 0 instructions: 5000002 cycles: 2893084 heartbeat IPC: 1.78891 cumulative IPC: 1.72826 (Simulation time: 0 hr 11 min 36 sec) 

Warmup complete CPU 0 instructions: 5000002 cycles: 2893084 (Simulation time: 0 hr 11 min 36 sec) 

Heartbeat CPU 0 instructions: 4000000 cycles: 2064469 heartbeat IPC: 1.93069 cumulative IPC: 1.93754 (Simulation time: 0 hr 11 min 37 sec) 
Heartbeat CPU 0 instructions: 4000000 cycles: 1570637 heartbeat IPC: 2.52373 cumulative IPC: 2.54674 (Simulation time: 0 hr 11 min 42 sec) 
Heartbeat CPU 0 instructions: 4000000 cycles: 2199464 heartbeat IPC: 1.81867 cumulative IPC: 1.81862 (Simulation time: 0 hr 11 min 45 sec) 
Heartbeat CPU 0 instructions: 4000000 cycles: 1928242 heartbeat IPC: 2.12497 cumulative IPC: 2.07443 (Simulation time: 0 hr 11 min 50 sec) 
Heartbeat CPU 0 instructions: 3000000 cycles: 1488421 heartbeat IPC: 2.01493 cumulative IPC: 2.01556 (Simulation time: 0 hr 11 min 51 sec) 
Heartbeat CPU 0 instructions: 4000000 cycles: 2038994 heartbeat IPC: 1.96396 cumulative IPC: 1.96175 (Simulation time: 0 hr 11 min 56 sec) 
Heartbeat CPU 0 instructions: 4000000 cycles: 2528843 heartbeat IPC: 1.62212 cumulative IPC: 1.58175 (Simulation time: 0 hr 11 min 56 sec) 
Heartbeat CPU 0 instructions: 4000000 cycles: 1632042 heartbeat IPC: 2.37997 cumulative IPC: 2.45092 (Simulation time: 0 hr 12 min 1 sec) 
Heartbeat CPU 0 instructions: 4000000 cycles: 1993794 heartbeat IPC: 1.96069 cumulative IPC: 2.00623 (Simulation time: 0 hr 12 min 10 sec) 
Heartbeat CPU 0 instructions: 6000001 cycles: 4818952 heartbeat IPC: 0.309938 cumulative IPC: 0.309937 (Simulation time: 0 hr 12 min 12 sec) 
Heartbeat CPU 0 instructions: 5000001 cycles: 2571024 heartbeat IPC: 2.06963 cumulative IPC: 1.94475 (Simulation time: 0 hr 12 min 14 sec) 

Warmup complete CPU 0 instructions: 5000001 cycles: 2571024 (Simulation time: 0 hr 12 min 14 sec) 

Heartbeat CPU 0 instructions: 5000003 cycles: 1865235 heartbeat IPC: 2.95479 cumulative IPC: 2.68063 (Simulation time: 0 hr 12 min 19 sec) 

Warmup complete CPU 0 instructions: 5000003 cycles: 1865235 (Simulation time: 0 hr 12 min 19 sec) 

Heartbeat CPU 0 instructions: 4000000 cycles: 2497342 heartbeat IPC: 1.51346 cumulative IPC: 1.6017 (Simulation time: 0 hr 12 min 20 sec) 
Heartbeat CPU 0 instructions: 5000003 cycles: 2322491 heartbeat IPC: 2.15319 cumulative IPC: 2.15286 (Simulation time: 0 hr 12 min 24 sec) 

Warmup complete CPU 0 instructions: 5000003 cycles: 2322491 (Simulation time: 0 hr 12 min 24 sec) 

Heartbeat CPU 0 instructions: 4000000 cycles: 2370621 heartbeat IPC: 1.68765 cumulative IPC: 1.68732 (Simulation time: 0 hr 12 min 29 sec) 
Heartbeat CPU 0 instructions: 4000000 cycles: 2502060 heartbeat IPC: 1.54433 cumulative IPC: 1.59868 (Simulation time: 0 hr 12 min 40 sec) 
Heartbeat CPU 0 instructions: 5000000 cycles: 1987091 heartbeat IPC: 2.82646 cumulative IPC: 2.51624 (Simulation time: 0 hr 12 min 40 sec) 

Warmup complete CPU 0 instructions: 5000004 cycles: 1987092 (Simulation time: 0 hr 12 min 40 sec) 

Heartbeat CPU 0 instructions: 5000001 cycles: 2037319 heartbeat IPC: 2.45268 cumulative IPC: 2.45421 (Simulation time: 0 hr 12 min 41 sec) 

Warmup complete CPU 0 instructions: 5000001 cycles: 2037319 (Simulation time: 0 hr 12 min 41 sec) 

Heartbeat CPU 0 instructions: 4000000 cycles: 2372043 heartbeat IPC: 1.68724 cumulative IPC: 1.68631 (Simulation time: 0 hr 12 min 50 sec) 
Heartbeat CPU 0 instructions: 4000000 cycles: 2212947 heartbeat IPC: 2.09306 cumulative IPC: 1.80754 (Simulation time: 0 hr 12 min 54 sec) 
Heartbeat CPU 0 instructions: 5000000 cycles: 2159515 heartbeat IPC: 2.40797 cumulative IPC: 2.31533 (Simulation time: 0 hr 12 min 59 sec) 

Warmup complete CPU 0 instructions: 5000001 cycles: 2159516 (Simulation time: 0 hr 12 min 59 sec) 

Heartbeat CPU 0 instructions: 4000000 cycles: 2133411 heartbeat IPC: 1.87654 cumulative IPC: 1.87493 (Simulation time: 0 hr 13 min 0 sec) 
Heartbeat CPU 0 instructions: 5000001 cycles: 1897208 heartbeat IPC: 2.65074 cumulative IPC: 2.63545 (Simulation time: 0 hr 13 min 3 sec) 

Warmup complete CPU 0 instructions: 5000001 cycles: 1897208 (Simulation time: 0 hr 13 min 3 sec) 

Heartbeat CPU 0 instructions: 6000001 cycles: 4646735 heartbeat IPC: 0.325742 cumulative IPC: 0.325741 (Simulation time: 0 hr 13 min 6 sec) 
Heartbeat CPU 0 instructions: 4000000 cycles: 2380257 heartbeat IPC: 1.68012 cumulative IPC: 1.68049 (Simulation time: 0 hr 13 min 6 sec) 
Heartbeat CPU 0 instructions: 4000000 cycles: 2307197 heartbeat IPC: 1.73452 cumulative IPC: 1.73371 (Simulation time: 0 hr 13 min 7 sec) 
Heartbeat CPU 0 instructions: 4000000 cycles: 2381496 heartbeat IPC: 1.60967 cumulative IPC: 1.67962 (Simulation time: 0 hr 13 min 10 sec) 
Heartbeat CPU 0 instructions: 5000001 cycles: 2071700 heartbeat IPC: 2.59762 cumulative IPC: 2.41348 (Simulation time: 0 hr 13 min 12 sec) 

Warmup complete CPU 0 instructions: 5000001 cycles: 2071700 (Simulation time: 0 hr 13 min 12 sec) 

Heartbeat CPU 0 instructions: 5000000 cycles: 2865856 heartbeat IPC: 1.74201 cumulative IPC: 1.74468 (Simulation time: 0 hr 13 min 15 sec) 

Warmup complete CPU 0 instructions: 5000002 cycles: 2865857 (Simulation time: 0 hr 13 min 15 sec) 

Heartbeat CPU 0 instructions: 6000002 cycles: 3664216 heartbeat IPC: 0.500616 cumulative IPC: 0.500616 (Simulation time: 0 hr 13 min 16 sec) 
Heartbeat CPU 0 instructions: 5000000 cycles: 2038862 heartbeat IPC: 2.49215 cumulative IPC: 2.45235 (Simulation time: 0 hr 13 min 18 sec) 

Warmup complete CPU 0 instructions: 5000001 cycles: 2038864 (Simulation time: 0 hr 13 min 18 sec) 

Heartbeat CPU 0 instructions: 5000001 cycles: 1916947 heartbeat IPC: 2.60828 cumulative IPC: 2.60831 (Simulation time: 0 hr 13 min 24 sec) 

Warmup complete CPU 0 instructions: 5000001 cycles: 1916947 (Simulation time: 0 hr 13 min 24 sec) 

Heartbeat CPU 0 instructions: 5000002 cycles: 2174893 heartbeat IPC: 2.37062 cumulative IPC: 2.29896 (Simulation time: 0 hr 13 min 25 sec) 

Warmup complete CPU 0 instructions: 5000002 cycles: 2174893 (Simulation time: 0 hr 13 min 25 sec) 

Heartbeat CPU 0 instructions: 4000000 cycles: 2452455 heartbeat IPC: 1.66435 cumulative IPC: 1.63102 (Simulation time: 0 hr 13 min 32 sec) 
Heartbeat CPU 0 instructions: 6000001 cycles: 3075679 heartbeat IPC: 2.11148 cumulative IPC: 2.11148 (Simulation time: 0 hr 13 min 33 sec) 
Heartbeat CPU 0 instructions: 5000000 cycles: 2346967 heartbeat IPC: 2.21653 cumulative IPC: 2.13041 (Simulation time: 0 hr 13 min 34 sec) 

Warmup complete CPU 0 instructions: 5000003 cycles: 2346968 (Simulation time: 0 hr 13 min 34 sec) 

Heartbeat CPU 0 instructions: 5000001 cycles: 2104126 heartbeat IPC: 2.38979 cumulative IPC: 2.37628 (Simulation time: 0 hr 13 min 36 sec) 

Warmup complete CPU 0 instructions: 5000001 cycles: 2104126 (Simulation time: 0 hr 13 min 36 sec) 

Heartbeat CPU 0 instructions: 4000000 cycles: 2006485 heartbeat IPC: 2.02288 cumulative IPC: 1.99354 (Simulation time: 0 hr 13 min 46 sec) 
Heartbeat CPU 0 instructions: 5000000 cycles: 1803509 heartbeat IPC: 2.76177 cumulative IPC: 2.77237 (Simulation time: 0 hr 13 min 49 sec) 

Warmup complete CPU 0 instructions: 5000004 cycles: 1803510 (Simulation time: 0 hr 13 min 49 sec) 

Heartbeat CPU 0 instructions: 5000003 cycles: 2884306 heartbeat IPC: 1.72934 cumulative IPC: 1.73352 (Simulation time: 0 hr 13 min 54 sec) 

Warmup complete CPU 0 instructions: 5000003 cycles: 2884306 (Simulation time: 0 hr 13 min 54 sec) 

Heartbeat CPU 0 instructions: 6000003 cycles: 2440238 heartbeat IPC: 1.7239 cumulative IPC: 1.7239 (Simulation time: 0 hr 13 min 58 sec) 
Heartbeat CPU 0 instructions: 5000000 cycles: 1960940 heartbeat IPC: 2.53063 cumulative IPC: 2.5498 (Simulation time: 0 hr 14 min 5 sec) 

Warmup complete CPU 0 instructions: 5000004 cycles: 1960941 (Simulation time: 0 hr 14 min 5 sec) 

Heartbeat CPU 0 instructions: 4000000 cycles: 2530681 heartbeat IPC: 1.58182 cumulative IPC: 1.5806 (Simulation time: 0 hr 14 min 9 sec) 
Heartbeat CPU 0 instructions: 5000001 cycles: 2171597 heartbeat IPC: 2.2271 cumulative IPC: 2.30245 (Simulation time: 0 hr 14 min 17 sec) 

Warmup complete CPU 0 instructions: 5000001 cycles: 2171597 (Simulation time: 0 hr 14 min 17 sec) 

Heartbeat CPU 0 instructions: 5000000 cycles: 2651055 heartbeat IPC: 1.88114 cumulative IPC: 1.88604 (Simulation time: 0 hr 14 min 18 sec) 

Warmup complete CPU 0 instructions: 5000001 cycles: 2651058 (Simulation time: 0 hr 14 min 18 sec) 

Heartbeat CPU 0 instructions: 5000000 cycles: 3014423 heartbeat IPC: 1.43893 cumulative IPC: 1.65869 (Simulation time: 0 hr 14 min 18 sec) 

Warmup complete CPU 0 instructions: 5000004 cycles: 3014425 (Simulation time: 0 hr 14 min 18 sec) 

Heartbeat CPU 0 instructions: 6000000 cycles: 5745380 heartbeat IPC: 0.350594 cumulative IPC: 0.350594 (Simulation time: 0 hr 14 min 24 sec) 
Heartbeat CPU 0 instructions: 4000000 cycles: 3848632 heartbeat IPC: 1.03869 cumulative IPC: 1.03933 (Simulation time: 0 hr 14 min 25 sec) 
Heartbeat CPU 0 instructions: 5000001 cycles: 2582394 heartbeat IPC: 1.93078 cumulative IPC: 1.93619 (Simulation time: 0 hr 14 min 25 sec) 

Warmup complete CPU 0 instructions: 5000001 cycles: 2582394 (Simulation time: 0 hr 14 min 25 sec) 

Heartbeat CPU 0 instructions: 4000000 cycles: 2624538 heartbeat IPC: 1.47596 cumulative IPC: 1.52408 (Simulation time: 0 hr 14 min 28 sec) 
Heartbeat CPU 0 instructions: 5000000 cycles: 2995748 heartbeat IPC: 1.668 cumulative IPC: 1.66903 (Simulation time: 0 hr 14 min 30 sec) 

Warmup complete CPU 0 instructions: 5000001 cycles: 2995749 (Simulation time: 0 hr 14 min 30 sec) 

Heartbeat CPU 0 instructions: 5000002 cycles: 1962094 heartbeat IPC: 2.55456 cumulative IPC: 2.5483 (Simulation time: 0 hr 14 min 36 sec) 

Warmup complete CPU 0 instructions: 5000002 cycles: 1962094 (Simulation time: 0 hr 14 min 36 sec) 

Heartbeat CPU 0 instructions: 5000000 cycles: 3123523 heartbeat IPC: 1.46972 cumulative IPC: 1.60076 (Simulation time: 0 hr 14 min 37 sec) 

Warmup complete CPU 0 instructions: 5000004 cycles: 3123524 (Simulation time: 0 hr 14 min 37 sec) 

Heartbeat CPU 0 instructions: 5000002 cycles: 2749347 heartbeat IPC: 1.81857 cumulative IPC: 1.81861 (Simulation time: 0 hr 14 min 40 sec) 

Warmup complete CPU 0 instructions: 5000002 cycles: 2749347 (Simulation time: 0 hr 14 min 40 sec) 

Heartbeat CPU 0 instructions: 5000000 cycles: 2425411 heartbeat IPC: 2.01139 cumulative IPC: 2.06151 (Simulation time: 0 hr 14 min 51 sec) 

Warmup complete CPU 0 instructions: 5000004 cycles: 2425412 (Simulation time: 0 hr 14 min 51 sec) 

Heartbeat CPU 0 instructions: 7000002 cycles: 8035164 heartbeat IPC: 0.310925 cumulative IPC: 0.31043 (Simulation time: 0 hr 14 min 55 sec) 
Heartbeat CPU 0 instructions: 5000001 cycles: 3158592 heartbeat IPC: 1.58794 cumulative IPC: 1.58298 (Simulation time: 0 hr 15 min 7 sec) 

Warmup complete CPU 0 instructions: 5000001 cycles: 3158592 (Simulation time: 0 hr 15 min 7 sec) 

Heartbeat CPU 0 instructions: 5000003 cycles: 2548012 heartbeat IPC: 1.96457 cumulative IPC: 1.96232 (Simulation time: 0 hr 15 min 10 sec) 

Warmup complete CPU 0 instructions: 5000003 cycles: 2548012 (Simulation time: 0 hr 15 min 10 sec) 

Heartbeat CPU 0 instructions: 6000000 cycles: 3438294 heartbeat IPC: 1.15304 cumulative IPC: 1.15304 (Simulation time: 0 hr 15 min 13 sec) 
Heartbeat CPU 0 instructions: 5000001 cycles: 3085110 heartbeat IPC: 1.70135 cumulative IPC: 1.62069 (Simulation time: 0 hr 15 min 19 sec) 

Warmup complete CPU 0 instructions: 5000001 cycles: 3085110 (Simulation time: 0 hr 15 min 19 sec) 

Heartbeat CPU 0 instructions: 5000002 cycles: 3062664 heartbeat IPC: 1.78379 cumulative IPC: 1.63257 (Simulation time: 0 hr 15 min 24 sec) 

Warmup complete CPU 0 instructions: 5000002 cycles: 3062664 (Simulation time: 0 hr 15 min 24 sec) 

Heartbeat CPU 0 instructions: 5000001 cycles: 2022320 heartbeat IPC: 2.56228 cumulative IPC: 2.47241 (Simulation time: 0 hr 15 min 25 sec) 

Warmup complete CPU 0 instructions: 5000001 cycles: 2022320 (Simulation time: 0 hr 15 min 25 sec) 

Heartbeat CPU 0 instructions: 6000001 cycles: 3243967 heartbeat IPC: 1.08521 cumulative IPC: 1.08521 (Simulation time: 0 hr 15 min 27 sec) 
Heartbeat CPU 0 instructions: 5000000 cycles: 2476471 heartbeat IPC: 2.07178 cumulative IPC: 2.019 (Simulation time: 0 hr 15 min 38 sec) 

Warmup complete CPU 0 instructions: 5000004 cycles: 2476472 (Simulation time: 0 hr 15 min 38 sec) 

Heartbeat CPU 0 instructions: 6000000 cycles: 2905684 heartbeat IPC: 1.15159 cumulative IPC: 1.15159 (Simulation time: 0 hr 15 min 40 sec) 
Heartbeat CPU 0 instructions: 7000001 cycles: 3552712 heartbeat IPC: 2.09629 cumulative IPC: 2.10386 (Simulation time: 0 hr 15 min 42 sec) 
Heartbeat CPU 0 instructions: 6000002 cycles: 4076026 heartbeat IPC: 0.452326 cumulative IPC: 0.452326 (Simulation time: 0 hr 15 min 44 sec) 
Heartbeat CPU 0 instructions: 6000000 cycles: 3738465 heartbeat IPC: 0.599964 cumulative IPC: 0.599964 (Simulation time: 0 hr 15 min 48 sec) 
Heartbeat CPU 0 instructions: 5000000 cycles: 2963700 heartbeat IPC: 1.68612 cumulative IPC: 1.68708 (Simulation time: 0 hr 15 min 49 sec) 

Warmup complete CPU 0 instructions: 5000004 cycles: 2963701 (Simulation time: 0 hr 15 min 49 sec) 

Heartbeat CPU 0 instructions: 5000002 cycles: 2691200 heartbeat IPC: 2.09095 cumulative IPC: 1.85791 (Simulation time: 0 hr 15 min 51 sec) 

Warmup complete CPU 0 instructions: 5000002 cycles: 2691200 (Simulation time: 0 hr 15 min 51 sec) 

Heartbeat CPU 0 instructions: 6000001 cycles: 2984440 heartbeat IPC: 1.5687 cumulative IPC: 1.56869 (Simulation time: 0 hr 15 min 56 sec) 
Heartbeat CPU 0 instructions: 5000002 cycles: 2957053 heartbeat IPC: 1.73745 cumulative IPC: 1.69087 (Simulation time: 0 hr 15 min 59 sec) 

Warmup complete CPU 0 instructions: 5000002 cycles: 2957053 (Simulation time: 0 hr 15 min 59 sec) 

Heartbeat CPU 0 instructions: 5000001 cycles: 2666043 heartbeat IPC: 1.87747 cumulative IPC: 1.87544 (Simulation time: 0 hr 16 min 6 sec) 

Warmup complete CPU 0 instructions: 5000001 cycles: 2666043 (Simulation time: 0 hr 16 min 6 sec) 

Heartbeat CPU 0 instructions: 6000000 cycles: 3558130 heartbeat IPC: 0.72294 cumulative IPC: 0.72294 (Simulation time: 0 hr 16 min 7 sec) 
Heartbeat CPU 0 instructions: 4000000 cycles: 1983432 heartbeat IPC: 2.02016 cumulative IPC: 2.01671 (Simulation time: 0 hr 16 min 6 sec) 
Heartbeat CPU 0 instructions: 7000001 cycles: 7646968 heartbeat IPC: 0.333307 cumulative IPC: 0.329481 (Simulation time: 0 hr 16 min 11 sec) 
Heartbeat CPU 0 instructions: 5000001 cycles: 2975033 heartbeat IPC: 1.68131 cumulative IPC: 1.68065 (Simulation time: 0 hr 16 min 12 sec) 

Warmup complete CPU 0 instructions: 5000001 cycles: 2975033 (Simulation time: 0 hr 16 min 12 sec) 

Heartbeat CPU 0 instructions: 6000002 cycles: 5717643 heartbeat IPC: 0.350658 cumulative IPC: 0.350657 (Simulation time: 0 hr 16 min 12 sec) 
Heartbeat CPU 0 instructions: 6000000 cycles: 4585769 heartbeat IPC: 0.384811 cumulative IPC: 0.38481 (Simulation time: 0 hr 16 min 13 sec) 
Heartbeat CPU 0 instructions: 5000000 cycles: 2964991 heartbeat IPC: 1.68649 cumulative IPC: 1.68635 (Simulation time: 0 hr 16 min 19 sec) 

Warmup complete CPU 0 instructions: 5000004 cycles: 2964992 (Simulation time: 0 hr 16 min 19 sec) 

Heartbeat CPU 0 instructions: 6000002 cycles: 3560323 heartbeat IPC: 0.601282 cumulative IPC: 0.601282 (Simulation time: 0 hr 16 min 19 sec) 
Heartbeat CPU 0 instructions: 6000000 cycles: 4836360 heartbeat IPC: 0.357462 cumulative IPC: 0.357462 (Simulation time: 0 hr 16 min 19 sec) 
Heartbeat CPU 0 instructions: 6000000 cycles: 3507343 heartbeat IPC: 0.741934 cumulative IPC: 0.741934 (Simulation time: 0 hr 16 min 22 sec) 
Heartbeat CPU 0 instructions: 7000001 cycles: 5848132 heartbeat IPC: 0.457893 cumulative IPC: 0.478302 (Simulation time: 0 hr 16 min 25 sec) 
Heartbeat CPU 0 instructions: 6000000 cycles: 3864316 heartbeat IPC: 0.513513 cumulative IPC: 0.513513 (Simulation time: 0 hr 16 min 25 sec) 
Heartbeat CPU 0 instructions: 6000002 cycles: 3131508 heartbeat IPC: 0.973349 cumulative IPC: 0.973349 (Simulation time: 0 hr 16 min 26 sec) 
Heartbeat CPU 0 instructions: 5000000 cycles: 2884156 heartbeat IPC: 1.73323 cumulative IPC: 1.73361 (Simulation time: 0 hr 16 min 26 sec) 

Warmup complete CPU 0 instructions: 5000004 cycles: 2884157 (Simulation time: 0 hr 16 min 26 sec) 

Heartbeat CPU 0 instructions: 7000000 cycles: 2988311 heartbeat IPC: 1.82457 cumulative IPC: 1.77281 (Simulation time: 0 hr 16 min 38 sec) 
Heartbeat CPU 0 instructions: 5000000 cycles: 3058482 heartbeat IPC: 1.65009 cumulative IPC: 1.6348 (Simulation time: 0 hr 16 min 48 sec) 

Warmup complete CPU 0 instructions: 5000002 cycles: 3058483 (Simulation time: 0 hr 16 min 48 sec) 

Heartbeat CPU 0 instructions: 6000000 cycles: 4593884 heartbeat IPC: 0.358375 cumulative IPC: 0.358373 (Simulation time: 0 hr 16 min 51 sec) 
Heartbeat CPU 0 instructions: 5000003 cycles: 3163087 heartbeat IPC: 1.58127 cumulative IPC: 1.58074 (Simulation time: 0 hr 17 min 22 sec) 

Warmup complete CPU 0 instructions: 5000003 cycles: 3163087 (Simulation time: 0 hr 17 min 22 sec) 

Heartbeat CPU 0 instructions: 7000000 cycles: 9421662 heartbeat IPC: 0.272014 cumulative IPC: 0.306345 (Simulation time: 0 hr 17 min 21 sec) 
Heartbeat CPU 0 instructions: 6000002 cycles: 3667297 heartbeat IPC: 0.586045 cumulative IPC: 0.586043 (Simulation time: 0 hr 17 min 25 sec) 
Heartbeat CPU 0 instructions: 6000002 cycles: 4806753 heartbeat IPC: 0.557934 cumulative IPC: 0.557932 (Simulation time: 0 hr 17 min 37 sec) 
Heartbeat CPU 0 instructions: 6000001 cycles: 3899925 heartbeat IPC: 0.67819 cumulative IPC: 0.678188 (Simulation time: 0 hr 17 min 39 sec) 
Heartbeat CPU 0 instructions: 6000003 cycles: 5270109 heartbeat IPC: 0.419146 cumulative IPC: 0.419146 (Simulation time: 0 hr 17 min 41 sec) 
Heartbeat CPU 0 instructions: 8000000 cycles: 11172781 heartbeat IPC: 0.318713 cumulative IPC: 0.313143 (Simulation time: 0 hr 17 min 43 sec) 
Heartbeat CPU 0 instructions: 6000002 cycles: 3646028 heartbeat IPC: 0.593848 cumulative IPC: 0.593848 (Simulation time: 0 hr 17 min 48 sec) 
Heartbeat CPU 0 instructions: 5000002 cycles: 2497400 heartbeat IPC: 2.03702 cumulative IPC: 2.00208 (Simulation time: 0 hr 17 min 49 sec) 

Warmup complete CPU 0 instructions: 5000002 cycles: 2497400 (Simulation time: 0 hr 17 min 49 sec) 

Heartbeat CPU 0 instructions: 6000000 cycles: 4822181 heartbeat IPC: 0.46059 cumulative IPC: 0.460591 (Simulation time: 0 hr 17 min 52 sec) 
Heartbeat CPU 0 instructions: 6000001 cycles: 4693603 heartbeat IPC: 0.514335 cumulative IPC: 0.514335 (Simulation time: 0 hr 17 min 53 sec) 
Heartbeat CPU 0 instructions: 5000002 cycles: 4738255 heartbeat IPC: 1.12407 cumulative IPC: 1.05524 (Simulation time: 0 hr 17 min 59 sec) 

Warmup complete CPU 0 instructions: 5000002 cycles: 4738255 (Simulation time: 0 hr 17 min 59 sec) 

Heartbeat CPU 0 instructions: 6000003 cycles: 5428337 heartbeat IPC: 0.433876 cumulative IPC: 0.433874 (Simulation time: 0 hr 18 min 1 sec) 
Heartbeat CPU 0 instructions: 8000000 cycles: 4026025 heartbeat IPC: 2.11276 cumulative IPC: 2.10682 (Simulation time: 0 hr 18 min 6 sec) 
Heartbeat CPU 0 instructions: 6000001 cycles: 4812623 heartbeat IPC: 0.550396 cumulative IPC: 0.550396 (Simulation time: 0 hr 18 min 6 sec) 
Heartbeat CPU 0 instructions: 7000000 cycles: 4389898 heartbeat IPC: 1.05086 cumulative IPC: 1.09958 (Simulation time: 0 hr 18 min 8 sec) 
Heartbeat CPU 0 instructions: 5000002 cycles: 3302258 heartbeat IPC: 1.47554 cumulative IPC: 1.51412 (Simulation time: 0 hr 18 min 11 sec) 

Warmup complete CPU 0 instructions: 5000002 cycles: 3302258 (Simulation time: 0 hr 18 min 11 sec) 

Heartbeat CPU 0 instructions: 6000003 cycles: 4216266 heartbeat IPC: 0.612044 cumulative IPC: 0.612044 (Simulation time: 0 hr 18 min 11 sec) 
Heartbeat CPU 0 instructions: 7000000 cycles: 3542426 heartbeat IPC: 1.79216 cumulative IPC: 1.673 (Simulation time: 0 hr 18 min 22 sec) 
Heartbeat CPU 0 instructions: 6000000 cycles: 6747458 heartbeat IPC: 0.218538 cumulative IPC: 0.218538 (Simulation time: 0 hr 18 min 27 sec) 
Heartbeat CPU 0 instructions: 6000000 cycles: 5116716 heartbeat IPC: 0.486842 cumulative IPC: 0.486842 (Simulation time: 0 hr 18 min 33 sec) 
Heartbeat CPU 0 instructions: 7000002 cycles: 3778956 heartbeat IPC: 1.14512 cumulative IPC: 1.14835 (Simulation time: 0 hr 18 min 37 sec) 
Heartbeat CPU 0 instructions: 6000001 cycles: 5872262 heartbeat IPC: 0.368505 cumulative IPC: 0.368505 (Simulation time: 0 hr 18 min 40 sec) 
Heartbeat CPU 0 instructions: 7000001 cycles: 4166477 heartbeat IPC: 1.084 cumulative IPC: 1.08461 (Simulation time: 0 hr 18 min 40 sec) 
Heartbeat CPU 0 instructions: 6000000 cycles: 3914634 heartbeat IPC: 0.731729 cumulative IPC: 0.731729 (Simulation time: 0 hr 18 min 45 sec) 
Heartbeat CPU 0 instructions: 7000002 cycles: 4763571 heartbeat IPC: 0.829574 cumulative IPC: 0.772595 (Simulation time: 0 hr 18 min 47 sec) 
Heartbeat CPU 0 instructions: 7000001 cycles: 5629568 heartbeat IPC: 0.64369 cumulative IPC: 0.531302 (Simulation time: 0 hr 18 min 49 sec) 
Heartbeat CPU 0 instructions: 7000002 cycles: 7461090 heartbeat IPC: 0.380992 cumulative IPC: 0.368852 (Simulation time: 0 hr 18 min 53 sec) 
Heartbeat CPU 0 instructions: 6000003 cycles: 5728197 heartbeat IPC: 0.378346 cumulative IPC: 0.378346 (Simulation time: 0 hr 18 min 57 sec) 
Heartbeat CPU 0 instructions: 7000000 cycles: 8720191 heartbeat IPC: 0.33305 cumulative IPC: 0.341627 (Simulation time: 0 hr 19 min 5 sec) 
Heartbeat CPU 0 instructions: 8000000 cycles: 3535767 heartbeat IPC: 1.82663 cumulative IPC: 1.79039 (Simulation time: 0 hr 19 min 13 sec) 
Heartbeat CPU 0 instructions: 8000000 cycles: 10675965 heartbeat IPC: 0.330142 cumulative IPC: 0.329701 (Simulation time: 0 hr 19 min 14 sec) 
Heartbeat CPU 0 instructions: 8000000 cycles: 8138946 heartbeat IPC: 0.436526 cumulative IPC: 0.463516 (Simulation time: 0 hr 19 min 15 sec) 
Heartbeat CPU 0 instructions: 7000003 cycles: 4155251 heartbeat IPC: 0.976809 cumulative IPC: 0.975076 (Simulation time: 0 hr 19 min 16 sec) 
Heartbeat CPU 0 instructions: 6000000 cycles: 3797815 heartbeat IPC: 0.563223 cumulative IPC: 0.563223 (Simulation time: 0 hr 19 min 25 sec) 
Heartbeat CPU 0 instructions: 7000000 cycles: 5053523 heartbeat IPC: 0.669701 cumulative IPC: 0.63365 (Simulation time: 0 hr 19 min 29 sec) 
Heartbeat CPU 0 instructions: 7000000 cycles: 7718491 heartbeat IPC: 0.32004 cumulative IPC: 0.338124 (Simulation time: 0 hr 19 min 30 sec) 
Heartbeat CPU 0 instructions: 7000002 cycles: 5813108 heartbeat IPC: 0.513139 cumulative IPC: 0.513326 (Simulation time: 0 hr 19 min 30 sec) 
Heartbeat CPU 0 instructions: 8000000 cycles: 10467984 heartbeat IPC: 0.955729 cumulative IPC: 0.396045 (Simulation time: 0 hr 19 min 33 sec) 
Heartbeat CPU 0 instructions: 6000001 cycles: 4314738 heartbeat IPC: 0.60654 cumulative IPC: 0.60654 (Simulation time: 0 hr 19 min 35 sec) 
Heartbeat CPU 0 instructions: 7000001 cycles: 8273989 heartbeat IPC: 0.220482 cumulative IPC: 0.322462 (Simulation time: 0 hr 19 min 39 sec) 
Heartbeat CPU 0 instructions: 6000002 cycles: 5078266 heartbeat IPC: 0.472911 cumulative IPC: 0.47291 (Simulation time: 0 hr 19 min 41 sec) 
Heartbeat CPU 0 instructions: 7000000 cycles: 7120025 heartbeat IPC: 0.394593 cumulative IPC: 0.38964 (Simulation time: 0 hr 19 min 42 sec) 
Heartbeat CPU 0 instructions: 6000002 cycles: 5096258 heartbeat IPC: 0.471426 cumulative IPC: 0.471426 (Simulation time: 0 hr 19 min 45 sec) 
Heartbeat CPU 0 instructions: 7000000 cycles: 4855253 heartbeat IPC: 0.741889 cumulative IPC: 0.741912 (Simulation time: 0 hr 19 min 51 sec) 
Heartbeat CPU 0 instructions: 6000003 cycles: 7598198 heartbeat IPC: 0.215464 cumulative IPC: 0.215464 (Simulation time: 0 hr 20 min 2 sec) 
Heartbeat CPU 0 instructions: 5000002 cycles: 2477017 heartbeat IPC: 2.026 cumulative IPC: 2.01856 (Simulation time: 0 hr 20 min 8 sec) 

Warmup complete CPU 0 instructions: 5000002 cycles: 2477017 (Simulation time: 0 hr 20 min 8 sec) 

Heartbeat CPU 0 instructions: 6000001 cycles: 4989627 heartbeat IPC: 0.493916 cumulative IPC: 0.493915 (Simulation time: 0 hr 20 min 12 sec) 
Heartbeat CPU 0 instructions: 6000003 cycles: 6994841 heartbeat IPC: 0.232362 cumulative IPC: 0.232362 (Simulation time: 0 hr 20 min 13 sec) 
Heartbeat CPU 0 instructions: 6000003 cycles: 9669475 heartbeat IPC: 0.139024 cumulative IPC: 0.139024 (Simulation time: 0 hr 20 min 24 sec) 
Heartbeat CPU 0 instructions: 7000001 cycles: 5479340 heartbeat IPC: 0.633146 cumulative IPC: 0.654893 (Simulation time: 0 hr 20 min 29 sec) 
Heartbeat CPU 0 instructions: 6000000 cycles: 5452209 heartbeat IPC: 0.3894 cumulative IPC: 0.389399 (Simulation time: 0 hr 20 min 30 sec) 
Heartbeat CPU 0 instructions: 9000001 cycles: 4502728 heartbeat IPC: 2.09774 cumulative IPC: 2.10454 (Simulation time: 0 hr 20 min 30 sec) 
Heartbeat CPU 0 instructions: 8000000 cycles: 4095056 heartbeat IPC: 1.80953 cumulative IPC: 1.71616 (Simulation time: 0 hr 20 min 45 sec) 
Heartbeat CPU 0 instructions: 7000000 cycles: 5321161 heartbeat IPC: 0.604643 cumulative IPC: 0.595198 (Simulation time: 0 hr 20 min 46 sec) 
Heartbeat CPU 0 instructions: 6000000 cycles: 5101029 heartbeat IPC: 0.489585 cumulative IPC: 0.489584 (Simulation time: 0 hr 20 min 48 sec) 
Heartbeat CPU 0 instructions: 9000000 cycles: 13177647 heartbeat IPC: 0.498786 cumulative IPC: 0.345269 (Simulation time: 0 hr 20 min 48 sec) 
Heartbeat CPU 0 instructions: 7000001 cycles: 6625881 heartbeat IPC: 0.549713 cumulative IPC: 0.553792 (Simulation time: 0 hr 20 min 49 sec) 
Heartbeat CPU 0 instructions: 8000000 cycles: 5410895 heartbeat IPC: 0.979435 cumulative IPC: 1.05639 (Simulation time: 0 hr 20 min 53 sec) 
Heartbeat CPU 0 instructions: 7000003 cycles: 5342266 heartbeat IPC: 0.58954 cumulative IPC: 0.591686 (Simulation time: 0 hr 21 min 6 sec) 
Heartbeat CPU 0 instructions: 7000000 cycles: 8470580 heartbeat IPC: 0.580342 cumulative IPC: 0.317511 (Simulation time: 0 hr 21 min 10 sec) 
Heartbeat CPU 0 instructions: 7000001 cycles: 7001389 heartbeat IPC: 0.458883 cumulative IPC: 0.459735 (Simulation time: 0 hr 21 min 12 sec) 
Heartbeat CPU 0 instructions: 7000000 cycles: 6629063 heartbeat IPC: 0.516673 cumulative IPC: 0.515501 (Simulation time: 0 hr 21 min 11 sec) 
Heartbeat CPU 0 instructions: 7000002 cycles: 7713060 heartbeat IPC: 0.437689 cumulative IPC: 0.435773 (Simulation time: 0 hr 21 min 12 sec) 
Heartbeat CPU 0 instructions: 6000002 cycles: 6226343 heartbeat IPC: 0.32645 cumulative IPC: 0.32645 (Simulation time: 0 hr 21 min 13 sec) 
Heartbeat CPU 0 instructions: 7000001 cycles: 6602001 heartbeat IPC: 0.558853 cumulative IPC: 0.554592 (Simulation time: 0 hr 21 min 13 sec) 
Heartbeat CPU 0 instructions: 8000000 cycles: 5870403 heartbeat IPC: 0.903478 cumulative IPC: 0.811795 (Simulation time: 0 hr 21 min 18 sec) 
Heartbeat CPU 0 instructions: 6000000 cycles: 6130502 heartbeat IPC: 0.718262 cumulative IPC: 0.718262 (Simulation time: 0 hr 21 min 31 sec) 
Heartbeat CPU 0 instructions: 8000000 cycles: 4648785 heartbeat IPC: 1.14965 cumulative IPC: 1.14878 (Simulation time: 0 hr 21 min 33 sec) 
Heartbeat CPU 0 instructions: 7000002 cycles: 7060921 heartbeat IPC: 0.51435 cumulative IPC: 0.500218 (Simulation time: 0 hr 21 min 41 sec) 
Heartbeat CPU 0 instructions: 8000000 cycles: 6926320 heartbeat IPC: 0.771157 cumulative IPC: 0.592758 (Simulation time: 0 hr 21 min 42 sec) 
Heartbeat CPU 0 instructions: 9000000 cycles: 4082145 heartbeat IPC: 1.83023 cumulative IPC: 1.80019 (Simulation time: 0 hr 21 min 44 sec) 
Heartbeat CPU 0 instructions: 7000000 cycles: 7691774 heartbeat IPC: 0.412938 cumulative IPC: 0.416019 (Simulation time: 0 hr 21 min 43 sec) 
Heartbeat CPU 0 instructions: 7000000 cycles: 5841926 heartbeat IPC: 0.615133 cumulative IPC: 0.613585 (Simulation time: 0 hr 21 min 49 sec) 
Heartbeat CPU 0 instructions: 8000000 cycles: 5089105 heartbeat IPC: 1.08386 cumulative IPC: 1.08436 (Simulation time: 0 hr 21 min 50 sec) 
Heartbeat CPU 0 instructions: 9000001 cycles: 11515542 heartbeat IPC: 0.954602 cumulative IPC: 0.463905 (Simulation time: 0 hr 21 min 56 sec) 
Heartbeat CPU 0 instructions: 8000000 cycles: 12151202 heartbeat IPC: 0.291459 cumulative IPC: 0.32309 (Simulation time: 0 hr 22 min 1 sec) 
Heartbeat CPU 0 instructions: 8000000 cycles: 5218976 heartbeat IPC: 0.94009 cumulative IPC: 0.963128 (Simulation time: 0 hr 22 min 2 sec) 
Heartbeat CPU 0 instructions: 7000002 cycles: 8924546 heartbeat IPC: 0.327624 cumulative IPC: 0.346864 (Simulation time: 0 hr 22 min 5 sec) 
Heartbeat CPU 0 instructions: 8000000 cycles: 10517490 heartbeat IPC: 0.357271 cumulative IPC: 0.344274 (Simulation time: 0 hr 22 min 9 sec) 
Heartbeat CPU 0 instructions: 9000001 cycles: 10439022 heartbeat IPC: 0.434769 cumulative IPC: 0.455978 (Simulation time: 0 hr 22 min 14 sec) 
Heartbeat CPU 0 instructions: 8000000 cycles: 11414543 heartbeat IPC: 0.252943 cumulative IPC: 0.319977 (Simulation time: 0 hr 22 min 15 sec) 
Heartbeat CPU 0 instructions: 9000002 cycles: 13728120 heartbeat IPC: 0.327638 cumulative IPC: 0.329183 (Simulation time: 0 hr 22 min 21 sec) 
Heartbeat CPU 0 instructions: 7000000 cycles: 8384310 heartbeat IPC: 0.376489 cumulative IPC: 0.377415 (Simulation time: 0 hr 22 min 22 sec) 
Heartbeat CPU 0 instructions: 8000000 cycles: 6309647 heartbeat IPC: 0.7961 cumulative IPC: 0.679896 (Simulation time: 0 hr 22 min 28 sec) 
Heartbeat CPU 0 instructions: 7000001 cycles: 5305651 heartbeat IPC: 0.718899 cumulative IPC: 0.725257 (Simulation time: 0 hr 22 min 31 sec) 
Heartbeat CPU 0 instructions: 8000000 cycles: 7753048 heartbeat IPC: 0.515479 cumulative IPC: 0.514042 (Simulation time: 0 hr 22 min 35 sec) 
Heartbeat CPU 0 instructions: 10000001 cycles: 4976169 heartbeat IPC: 2.1122 cumulative IPC: 2.10607 (Simulation time: 0 hr 22 min 50 sec) 
Heartbeat CPU 0 instructions: 6000001 cycles: 12996019 heartbeat IPC: 0.103159 cumulative IPC: 0.103159 (Simulation time: 0 hr 22 min 53 sec) 
Heartbeat CPU 0 instructions: 8000000 cycles: 8999995 heartbeat IPC: 0.531923 cumulative IPC: 0.427782 (Simulation time: 0 hr 22 min 54 sec) 
Heartbeat CPU 0 instructions: 7000001 cycles: 5504039 heartbeat IPC: 0.58609 cumulative IPC: 0.574429 (Simulation time: 0 hr 22 min 56 sec) 
Heartbeat CPU 0 instructions: 8000000 cycles: 6703228 heartbeat IPC: 0.817067 cumulative IPC: 0.701292 (Simulation time: 0 hr 23 min 4 sec) 
Heartbeat CPU 0 instructions: 7000000 cycles: 5949144 heartbeat IPC: 0.611842 cumulative IPC: 0.60918 (Simulation time: 0 hr 23 min 6 sec) 
Heartbeat CPU 0 instructions: 9000000 cycles: 4658335 heartbeat IPC: 1.77532 cumulative IPC: 1.73058 (Simulation time: 0 hr 23 min 7 sec) 
Heartbeat CPU 0 instructions: 8000000 cycles: 6267515 heartbeat IPC: 0.708084 cumulative IPC: 0.730282 (Simulation time: 0 hr 23 min 17 sec) 
Heartbeat CPU 0 instructions: 7000000 cycles: 7226538 heartbeat IPC: 0.469421 cumulative IPC: 0.470421 (Simulation time: 0 hr 23 min 18 sec) 
Heartbeat CPU 0 instructions: 6000000 cycles: 13619456 heartbeat IPC: 0.0899113 cumulative IPC: 0.0899113 (Simulation time: 0 hr 23 min 19 sec) 
Heartbeat CPU 0 instructions: 7000001 cycles: 7182668 heartbeat IPC: 0.475194 cumulative IPC: 0.474049 (Simulation time: 0 hr 23 min 22 sec) 
Heartbeat CPU 0 instructions: 9000000 cycles: 6353332 heartbeat IPC: 1.06108 cumulative IPC: 1.05756 (Simulation time: 0 hr 23 min 34 sec) 
Heartbeat CPU 0 instructions: 8000000 cycles: 12358505 heartbeat IPC: 0.244827 cumulative IPC: 0.291636 (Simulation time: 0 hr 23 min 36 sec) 
Heartbeat CPU 0 instructions: 8000000 cycles: 8424955 heartbeat IPC: 0.555841 cumulative IPC: 0.554474 (Simulation time: 0 hr 23 min 52 sec) 
Heartbeat CPU 0 instructions: 7000000 cycles: 7086124 heartbeat IPC: 0.476986 cumulative IPC: 0.485303 (Simulation time: 0 hr 23 min 53 sec) 
Heartbeat CPU 0 instructions: 9000000 cycles: 7183476 heartbeat IPC: 0.761572 cumulative IPC: 0.798629 (Simulation time: 0 hr 23 min 55 sec) 
Heartbeat CPU 0 instructions: 10000002 cycles: 15175589 heartbeat IPC: 0.500516 cumulative IPC: 0.368105 (Simulation time: 0 hr 23 min 55 sec) 
Heartbeat CPU 0 instructions: 8000000 cycles: 6799404 heartbeat IPC: 0.676479 cumulative IPC: 0.620031 (Simulation time: 0 hr 24 min 4 sec) 
Heartbeat CPU 0 instructions: 10000003 cycles: 12561727 heartbeat IPC: 0.955856 cumulative IPC: 0.517136 (Simulation time: 0 hr 24 min 9 sec) 
Heartbeat CPU 0 instructions: 7000003 cycles: 12501489 heartbeat IPC: 0.203945 cumulative IPC: 0.209546 (Simulation time: 0 hr 24 min 14 sec) 
Heartbeat CPU 0 instructions: 8000000 cycles: 11343853 heartbeat IPC: 0.348035 cumulative IPC: 0.327073 (Simulation time: 0 hr 24 min 18 sec) 
Heartbeat CPU 0 instructions: 8000000 cycles: 6806880 heartbeat IPC: 0.682772 cumulative IPC: 0.619222 (Simulation time: 0 hr 24 min 25 sec) 
Heartbeat CPU 0 instructions: 8000000 cycles: 8432840 heartbeat IPC: 0.546197 cumulative IPC: 0.551765 (Simulation time: 0 hr 24 min 25 sec) 
Heartbeat CPU 0 instructions: 10000002 cycles: 5020350 heartbeat IPC: 1.06587 cumulative IPC: 1.58218 (Simulation time: 0 hr 24 min 27 sec) 
Heartbeat CPU 0 instructions: 7000002 cycles: 7965615 heartbeat IPC: 0.397867 cumulative IPC: 0.393587 (Simulation time: 0 hr 24 min 28 sec) 
Heartbeat CPU 0 instructions: 9000000 cycles: 5522697 heartbeat IPC: 1.14428 cumulative IPC: 1.14765 (Simulation time: 0 hr 24 min 30 sec) 
Heartbeat CPU 0 instructions: 9000003 cycles: 8523440 heartbeat IPC: 0.626129 cumulative IPC: 0.600763 (Simulation time: 0 hr 24 min 36 sec) 
Heartbeat CPU 0 instructions: 8000000 cycles: 8576553 heartbeat IPC: 0.513481 cumulative IPC: 0.514826 (Simulation time: 0 hr 24 min 36 sec) 
Heartbeat CPU 0 instructions: 8000000 cycles: 9949746 heartbeat IPC: 0.447089 cumulative IPC: 0.439481 (Simulation time: 0 hr 24 min 38 sec) 
Heartbeat CPU 0 instructions: 8000000 cycles: 9152154 heartbeat IPC: 0.46495 cumulative IPC: 0.461461 (Simulation time: 0 hr 24 min 39 sec) 
Heartbeat CPU 0 instructions: 8000000 cycles: 9082537 heartbeat IPC: 0.494653 cumulative IPC: 0.498349 (Simulation time: 0 hr 24 min 41 sec) 
Heartbeat CPU 0 instructions: 9000000 cycles: 13324108 heartbeat IPC: 0.356301 cumulative IPC: 0.347204 (Simulation time: 0 hr 24 min 44 sec) 
Heartbeat CPU 0 instructions: 9000000 cycles: 6244656 heartbeat IPC: 0.974963 cumulative IPC: 0.96606 (Simulation time: 0 hr 24 min 46 sec) 
Heartbeat CPU 0 instructions: 7000002 cycles: 11432481 heartbeat IPC: 0.225345 cumulative IPC: 0.228799 (Simulation time: 0 hr 24 min 46 sec) 
Heartbeat CPU 0 instructions: 7000001 cycles: 7077614 heartbeat IPC: 0.505924 cumulative IPC: 0.49762 (Simulation time: 0 hr 24 min 49 sec) 
Heartbeat CPU 0 instructions: 9000001 cycles: 6030069 heartbeat IPC: 1.06274 cumulative IPC: 1.07887 (Simulation time: 0 hr 25 min 0 sec) 
Heartbeat CPU 0 instructions: 9000001 cycles: 15307141 heartbeat IPC: 0.316863 cumulative IPC: 0.32151 (Simulation time: 0 hr 25 min 0 sec) 
Heartbeat CPU 0 instructions: 10000000 cycles: 12734975 heartbeat IPC: 0.435549 cumulative IPC: 0.451741 (Simulation time: 0 hr 25 min 6 sec) 
Heartbeat CPU 0 instructions: 11000002 cycles: 5453066 heartbeat IPC: 2.09689 cumulative IPC: 2.10453 (Simulation time: 0 hr 25 min 7 sec) 
Heartbeat CPU 0 instructions: 7000000 cycles: 9251235 heartbeat IPC: 0.33059 cumulative IPC: 0.328507 (Simulation time: 0 hr 25 min 9 sec) 
Heartbeat CPU 0 instructions: 7000000 cycles: 7496611 heartbeat IPC: 0.732006 cumulative IPC: 0.725069 (Simulation time: 0 hr 25 min 11 sec) 
Heartbeat CPU 0 instructions: 10000003 cycles: 16689738 heartbeat IPC: 0.337654 cumulative IPC: 0.330843 (Simulation time: 0 hr 25 min 15 sec) 
Heartbeat CPU 0 instructions: 9000001 cycles: 14585314 heartbeat IPC: 0.315381 cumulative IPC: 0.318815 (Simulation time: 0 hr 25 min 17 sec) 
Heartbeat CPU 0 instructions: 9000001 cycles: 7583341 heartbeat IPC: 0.785119 cumulative IPC: 0.703466 (Simulation time: 0 hr 25 min 25 sec) 
Heartbeat CPU 0 instructions: 8000000 cycles: 7464681 heartbeat IPC: 0.616236 cumulative IPC: 0.614466 (Simulation time: 0 hr 25 min 26 sec) 
Heartbeat CPU 0 instructions: 8000000 cycles: 11464971 heartbeat IPC: 0.393634 cumulative IPC: 0.361168 (Simulation time: 0 hr 25 min 27 sec) 
Heartbeat CPU 0 instructions: 9000003 cycles: 9691309 heartbeat IPC: 0.515928 cumulative IPC: 0.514512 (Simulation time: 0 hr 25 min 32 sec) 
Heartbeat CPU 0 instructions: 10000001 cycles: 5218925 heartbeat IPC: 1.78384 cumulative IPC: 1.74097 (Simulation time: 0 hr 25 min 35 sec) 
Heartbeat CPU 0 instructions: 8000000 cycles: 10042649 heartbeat IPC: 0.425374 cumulative IPC: 0.419091 (Simulation time: 0 hr 25 min 35 sec) 
Heartbeat CPU 0 instructions: 9000003 cycles: 8003035 heartbeat IPC: 0.769347 cumulative IPC: 0.717151 (Simulation time: 0 hr 25 min 44 sec) 
Heartbeat CPU 0 instructions: 6000001 cycles: 14583937 heartbeat IPC: 0.0825973 cumulative IPC: 0.0825973 (Simulation time: 0 hr 25 min 51 sec) 
Heartbeat CPU 0 instructions: 8000000 cycles: 11040806 heartbeat IPC: 0.376436 cumulative IPC: 0.377088 (Simulation time: 0 hr 25 min 59 sec) 
Heartbeat CPU 0 instructions: 8000000 cycles: 6688502 heartbeat IPC: 0.723143 cumulative IPC: 0.724551 (Simulation time: 0 hr 26 min 2 sec) 
[...]
Finished CPU 0 instructions: 50000003 cycles: 97644141 cummulative IPC: 0.512064 (Simulation time: 3 hr 4 min 6 sec) 

ChampSim completed all CPUs

Region of Interest Statistics

CPU 0 cummulative IPC: 0.512064 instructions: 50000003 cycles: 97644141
LLC TOTAL     ACCESS:    1892629  HIT:     734528  MISS:    1158101
LLC LOAD      ACCESS:    1251671  HIT:     488255  MISS:     763416
LLC RFO       ACCESS:     263695  HIT:     104325  MISS:     159370
LLC PREFETCH  ACCESS:          0  HIT:          0  MISS:          0
LLC WRITEBACK ACCESS:     377263  HIT:     141948  MISS:     235315
Heartbeat CPU 0 instructions: 49000000 cycles: 226416010 heartbeat IPC: 0.271472 cumulative IPC: 0.19667 (Simulation time: 3 hr 4 min 17 sec) 
Heartbeat CPU 0 instructions: 50000001 cycles: 126426139 heartbeat IPC: 0.260996 cumulative IPC: 0.362125 (Simulation time: 3 hr 4 min 17 sec) 
Heartbeat CPU 0 instructions: 39000000 cycles: 422054640 heartbeat IPC: 0.0820893 cumulative IPC: 0.0810378 (Simulation time: 3 hr 4 min 19 sec) 
Heartbeat CPU 0 instructions: 55000000 cycles: 124177286 heartbeat IPC: 0.515693 cumulative IPC: 0.412499 (Simulation time: 3 hr 4 min 20 sec) 
Finished CPU 0 instructions: 50000000 cycles: 121212295 cummulative IPC: 0.412499 (Simulation time: 3 hr 4 min 20 sec) 

ChampSim completed all CPUs

Region of Interest Statistics

CPU 0 cummulative IPC: 0.412499 instructions: 50000000 cycles: 121212295
LLC TOTAL     ACCESS:     585981  HIT:     155461  MISS:     430520
LLC LOAD      ACCESS:     317739  HIT:      55309  MISS:     262430
LLC RFO       ACCESS:     134054  HIT:      28839  MISS:     105215
LLC PREFETCH  ACCESS:          0  HIT:          0  MISS:          0
LLC WRITEBACK ACCESS:     134188  HIT:      71313  MISS:      62875
Heartbeat CPU 0 instructions: 50000001 cycles: 141044789 heartbeat IPC: 0.32698 cumulative IPC: 0.326367 (Simulation time: 3 hr 4 min 21 sec) 
Heartbeat CPU 0 instructions: 54000001 cycles: 110296761 heartbeat IPC: 0.556251 cumulative IPC: 0.456944 (Simulation time: 3 hr 4 min 20 sec) 
Heartbeat CPU 0 instructions: 54000000 cycles: 113844800 heartbeat IPC: 0.327582 cumulative IPC: 0.441598 (Simulation time: 3 hr 4 min 24 sec) 
Heartbeat CPU 0 instructions: 40000000 cycles: 443426966 heartbeat IPC: 0.0644614 cumulative IPC: 0.0793741 (Simulation time: 3 hr 4 min 23 sec) 
Heartbeat CPU 0 instructions: 43000000 cycles: 351958676 heartbeat IPC: 0.183386 cumulative IPC: 0.108732 (Simulation time: 3 hr 4 min 45 sec) 
Heartbeat CPU 0 instructions: 50000000 cycles: 364065592 heartbeat IPC: 0.15023 cumulative IPC: 0.124736 (Simulation time: 3 hr 4 min 46 sec) 
Heartbeat CPU 0 instructions: 50000001 cycles: 191632428 heartbeat IPC: 0.228665 cumulative IPC: 0.238505 (Simulation time: 3 hr 4 min 46 sec) 
Heartbeat CPU 0 instructions: 53000000 cycles: 127686200 heartbeat IPC: 0.384611 cumulative IPC: 0.385229 (Simulation time: 3 hr 4 min 49 sec) 
Heartbeat CPU 0 instructions: 50000003 cycles: 230091880 heartbeat IPC: 0.272045 cumulative IPC: 0.197889 (Simulation time: 3 hr 4 min 54 sec) 
Heartbeat CPU 0 instructions: 55000000 cycles: 112143141 heartbeat IPC: 0.5416 cumulative IPC: 0.458377 (Simulation time: 3 hr 5 min 4 sec) 
Finished CPU 0 instructions: 50000002 cycles: 109080478 cummulative IPC: 0.458377 (Simulation time: 3 hr 5 min 4 sec) 

ChampSim completed all CPUs

Region of Interest Statistics

CPU 0 cummulative IPC: 0.458377 instructions: 50000002 cycles: 109080478
LLC TOTAL     ACCESS:    2288605  HIT:     787875  MISS:    1500730
LLC LOAD      ACCESS:    1470875  HIT:     495343  MISS:     975532
LLC RFO       ACCESS:     352041  HIT:      60272  MISS:     291769
LLC PREFETCH  ACCESS:          0  HIT:          0  MISS:          0
LLC WRITEBACK ACCESS:     465689  HIT:     232260  MISS:     233429
Heartbeat CPU 0 instructions: 51000002 cycles: 144069010 heartbeat IPC: 0.330664 cumulative IPC: 0.326459 (Simulation time: 3 hr 5 min 9 sec) 
Heartbeat CPU 0 instructions: 51000000 cycles: 130164318 heartbeat IPC: 0.26751 cumulative IPC: 0.359361 (Simulation time: 3 hr 5 min 10 sec) 
Heartbeat CPU 0 instructions: 40000000 cycles: 434238845 heartbeat IPC: 0.0820735 cumulative IPC: 0.081067 (Simulation time: 3 hr 5 min 17 sec) 
Heartbeat CPU 0 instructions: 41000003 cycles: 454803481 heartbeat IPC: 0.0879006 cumulative IPC: 0.0795885 (Simulation time: 3 hr 5 min 21 sec) 
Heartbeat CPU 0 instructions: 51000001 cycles: 233770619 heartbeat IPC: 0.271832 cumulative IPC: 0.199066 (Simulation time: 3 hr 5 min 26 sec) 
Heartbeat CPU 0 instructions: 55000000 cycles: 116864186 heartbeat IPC: 0.331193 cumulative IPC: 0.438673 (Simulation time: 3 hr 5 min 27 sec) 
Finished CPU 0 instructions: 50000000 cycles: 113980092 cummulative IPC: 0.438673 (Simulation time: 3 hr 5 min 27 sec) 

ChampSim completed all CPUs

Region of Interest Statistics

CPU 0 cummulative IPC: 0.438673 instructions: 50000000 cycles: 113980092
LLC TOTAL     ACCESS:    1860254  HIT:     713447  MISS:    1146807
LLC LOAD      ACCESS:    1091617  HIT:     197374  MISS:     894243
LLC RFO       ACCESS:     126461  HIT:     114388  MISS:      12073
LLC PREFETCH  ACCESS:          0  HIT:          0  MISS:          0
LLC WRITEBACK ACCESS:     642176  HIT:     401685  MISS:     240491
Heartbeat CPU 0 instructions: 51000000 cycles: 371463594 heartbeat IPC: 0.135172 cumulative IPC: 0.124945 (Simulation time: 3 hr 5 min 27 sec) 
Heartbeat CPU 0 instructions: 51000003 cycles: 195624529 heartbeat IPC: 0.250495 cumulative IPC: 0.238753 (Simulation time: 3 hr 5 min 35 sec) 
Heartbeat CPU 0 instructions: 54000001 cycles: 130341151 heartbeat IPC: 0.376655 cumulative IPC: 0.38505 (Simulation time: 3 hr 5 min 39 sec) 
Heartbeat CPU 0 instructions: 44000000 cycles: 365995029 heartbeat IPC: 0.0712436 cumulative IPC: 0.107285 (Simulation time: 3 hr 5 min 42 sec) 
Heartbeat CPU 0 instructions: 52000000 cycles: 147083170 heartbeat IPC: 0.331767 cumulative IPC: 0.32657 (Simulation time: 3 hr 5 min 49 sec) 
Heartbeat CPU 0 instructions: 52000000 cycles: 134046327 heartbeat IPC: 0.257599 cumulative IPC: 0.356366 (Simulation time: 3 hr 5 min 55 sec) 
Heartbeat CPU 0 instructions: 52000000 cycles: 237422130 heartbeat IPC: 0.273859 cumulative IPC: 0.200229 (Simulation time: 3 hr 5 min 56 sec) 
Heartbeat CPU 0 instructions: 42000000 cycles: 463767719 heartbeat IPC: 0.111554 cumulative IPC: 0.0802097 (Simulation time: 3 hr 5 min 57 sec) 
Heartbeat CPU 0 instructions: 52000000 cycles: 380243234 heartbeat IPC: 0.1139 cumulative IPC: 0.124688 (Simulation time: 3 hr 6 min 3 sec) 
Heartbeat CPU 0 instructions: 41000000 cycles: 446265332 heartbeat IPC: 0.0831498 cumulative IPC: 0.0811235 (Simulation time: 3 hr 6 min 4 sec) 
Heartbeat CPU 0 instructions: 45000001 cycles: 374501255 heartbeat IPC: 0.117561 cumulative IPC: 0.10752 (Simulation time: 3 hr 6 min 20 sec) 
Heartbeat CPU 0 instructions: 55000001 cycles: 132781450 heartbeat IPC: 0.409786 cumulative IPC: 0.385516 (Simulation time: 3 hr 6 min 22 sec) 
Finished CPU 0 instructions: 50000000 cycles: 129696340 cummulative IPC: 0.385516 (Simulation time: 3 hr 6 min 22 sec) 

ChampSim completed all CPUs

Region of Interest Statistics

CPU 0 cummulative IPC: 0.385516 instructions: 50000000 cycles: 129696340
LLC TOTAL     ACCESS:     168332  HIT:     152010  MISS:      16322
LLC LOAD      ACCESS:     116139  HIT:     103576  MISS:      12563
LLC RFO       ACCESS:      15800  HIT:      12129  MISS:       3671
LLC PREFETCH  ACCESS:          0  HIT:          0  MISS:          0
LLC WRITEBACK ACCESS:      36393  HIT:      36305  MISS:         88
Heartbeat CPU 0 instructions: 53000001 cycles: 241090590 heartbeat IPC: 0.272594 cumulative IPC: 0.201343 (Simulation time: 3 hr 6 min 23 sec) 
Heartbeat CPU 0 instructions: 52000000 cycles: 200041086 heartbeat IPC: 0.22642 cumulative IPC: 0.238477 (Simulation time: 3 hr 6 min 24 sec) 
Heartbeat CPU 0 instructions: 53000000 cycles: 150189294 heartbeat IPC: 0.321945 cumulative IPC: 0.326472 (Simulation time: 3 hr 6 min 27 sec) 
Heartbeat CPU 0 instructions: 53000000 cycles: 387004732 heartbeat IPC: 0.147896 cumulative IPC: 0.125097 (Simulation time: 3 hr 6 min 31 sec) 
Heartbeat CPU 0 instructions: 53000000 cycles: 138105291 heartbeat IPC: 0.246368 cumulative IPC: 0.353082 (Simulation time: 3 hr 6 min 36 sec) 
Heartbeat CPU 0 instructions: 43000001 cycles: 475593559 heartbeat IPC: 0.0845607 cumulative IPC: 0.0803185 (Simulation time: 3 hr 6 min 39 sec) 
Heartbeat CPU 0 instructions: 42000000 cycles: 458299442 heartbeat IPC: 0.0830971 cumulative IPC: 0.0811756 (Simulation time: 3 hr 6 min 44 sec) 
Heartbeat CPU 0 instructions: 54000000 cycles: 244749418 heartbeat IPC: 0.273311 cumulative IPC: 0.202431 (Simulation time: 3 hr 6 min 46 sec) 
Heartbeat CPU 0 instructions: 46000001 cycles: 379998673 heartbeat IPC: 0.181904 cumulative IPC: 0.108603 (Simulation time: 3 hr 6 min 46 sec) 
Heartbeat CPU 0 instructions: 54000000 cycles: 153223777 heartbeat IPC: 0.329545 cumulative IPC: 0.326535 (Simulation time: 3 hr 6 min 56 sec) 
Heartbeat CPU 0 instructions: 54000000 cycles: 394821607 heartbeat IPC: 0.127928 cumulative IPC: 0.125153 (Simulation time: 3 hr 6 min 58 sec) 
Heartbeat CPU 0 instructions: 53000000 cycles: 205076367 heartbeat IPC: 0.198599 cumulative IPC: 0.237483 (Simulation time: 3 hr 7 min 4 sec) 
Heartbeat CPU 0 instructions: 54000001 cycles: 140888941 heartbeat IPC: 0.359241 cumulative IPC: 0.353206 (Simulation time: 3 hr 7 min 6 sec) 
Heartbeat CPU 0 instructions: 55000000 cycles: 248424400 heartbeat IPC: 0.27211 cumulative IPC: 0.203473 (Simulation time: 3 hr 7 min 7 sec) 
Finished CPU 0 instructions: 50000000 cycles: 245733226 cummulative IPC: 0.203473 (Simulation time: 3 hr 7 min 7 sec) 

ChampSim completed all CPUs

Region of Interest Statistics

CPU 0 cummulative IPC: 0.203473 instructions: 50000000 cycles: 245733226
LLC TOTAL     ACCESS:    2081202  HIT:     381769  MISS:    1699433
LLC LOAD      ACCESS:    1001001  HIT:     102742  MISS:     898259
LLC RFO       ACCESS:     447738  HIT:      32975  MISS:     414763
LLC PREFETCH  ACCESS:          0  HIT:          0  MISS:          0
LLC WRITEBACK ACCESS:     632463  HIT:     246052  MISS:     386411
Heartbeat CPU 0 instructions: 43000000 cycles: 470395072 heartbeat IPC: 0.0826745 cumulative IPC: 0.0812143 (Simulation time: 3 hr 7 min 18 sec) 
Heartbeat CPU 0 instructions: 44000000 cycles: 489713085 heartbeat IPC: 0.0708238 cumulative IPC: 0.0800433 (Simulation time: 3 hr 7 min 20 sec) 
Heartbeat CPU 0 instructions: 47000002 cycles: 390229877 heartbeat IPC: 0.0977403 cumulative IPC: 0.108316 (Simulation time: 3 hr 7 min 21 sec) 
Heartbeat CPU 0 instructions: 55000001 cycles: 403106553 heartbeat IPC: 0.120701 cumulative IPC: 0.125061 (Simulation time: 3 hr 7 min 22 sec) 
Finished CPU 0 instructions: 50000000 cycles: 399804298 cummulative IPC: 0.125061 (Simulation time: 3 hr 7 min 22 sec) 

ChampSim completed all CPUs

Region of Interest Statistics

CPU 0 cummulative IPC: 0.125061 instructions: 50000000 cycles: 399804298
LLC TOTAL     ACCESS:    4073916  HIT:    1450125  MISS:    2623791
LLC LOAD      ACCESS:    1208957  HIT:     252228  MISS:     956729
LLC RFO       ACCESS:    1207739  HIT:     419241  MISS:     788498
LLC PREFETCH  ACCESS:          0  HIT:          0  MISS:          0
LLC WRITEBACK ACCESS:    1657220  HIT:     778656  MISS:     878564
Heartbeat CPU 0 instructions: 55000002 cycles: 156253070 heartbeat IPC: 0.330111 cumulative IPC: 0.326605 (Simulation time: 3 hr 7 min 23 sec) 
Finished CPU 0 instructions: 50000003 cycles: 153089984 cummulative IPC: 0.326605 (Simulation time: 3 hr 7 min 23 sec) 

ChampSim completed all CPUs

Region of Interest Statistics

CPU 0 cummulative IPC: 0.326605 instructions: 50000003 cycles: 153089984
LLC TOTAL     ACCESS:    2633438  HIT:     419858  MISS:    2213580
LLC LOAD      ACCESS:    1915756  HIT:     419327  MISS:    1496429
LLC RFO       ACCESS:          0  HIT:          0  MISS:          0
LLC PREFETCH  ACCESS:          0  HIT:          0  MISS:          0
LLC WRITEBACK ACCESS:     717682  HIT:        531  MISS:     717151
Heartbeat CPU 0 instructions: 55000002 cycles: 143394531 heartbeat IPC: 0.399108 cumulative IPC: 0.35402 (Simulation time: 3 hr 7 min 31 sec) 
Finished CPU 0 instructions: 50000001 cycles: 141235015 cummulative IPC: 0.35402 (Simulation time: 3 hr 7 min 31 sec) 

ChampSim completed all CPUs

Region of Interest Statistics

CPU 0 cummulative IPC: 0.35402 instructions: 50000001 cycles: 141235015
LLC TOTAL     ACCESS:    1603519  HIT:     697447  MISS:     906072
LLC LOAD      ACCESS:    1394421  HIT:     498465  MISS:     895956
LLC RFO       ACCESS:      12669  HIT:       2798  MISS:       9871
LLC PREFETCH  ACCESS:          0  HIT:          0  MISS:          0
LLC WRITEBACK ACCESS:     196429  HIT:     196184  MISS:        245
Heartbeat CPU 0 instructions: 54000002 cycles: 209687714 heartbeat IPC: 0.216857 cumulative IPC: 0.237023 (Simulation time: 3 hr 7 min 34 sec) 
Heartbeat CPU 0 instructions: 45000000 cycles: 497753421 heartbeat IPC: 0.124373 cumulative IPC: 0.080763 (Simulation time: 3 hr 7 min 38 sec) 
Heartbeat CPU 0 instructions: 44000000 cycles: 482514322 heartbeat IPC: 0.0825134 cumulative IPC: 0.0812471 (Simulation time: 3 hr 7 min 40 sec) 
Heartbeat CPU 0 instructions: 48000000 cycles: 402555407 heartbeat IPC: 0.0811322 cumulative IPC: 0.107479 (Simulation time: 3 hr 7 min 44 sec) 
Heartbeat CPU 0 instructions: 55000001 cycles: 213954841 heartbeat IPC: 0.234349 cumulative IPC: 0.236969 (Simulation time: 3 hr 7 min 51 sec) 
Finished CPU 0 instructions: 50000001 cycles: 210997789 cummulative IPC: 0.236969 (Simulation time: 3 hr 7 min 51 sec) 

ChampSim completed all CPUs

Region of Interest Statistics

CPU 0 cummulative IPC: 0.236969 instructions: 50000001 cycles: 210997789
LLC TOTAL     ACCESS:    1600850  HIT:     716947  MISS:     883903
LLC LOAD      ACCESS:     958657  HIT:     254321  MISS:     704336
LLC RFO       ACCESS:     164135  HIT:      42684  MISS:     121451
LLC PREFETCH  ACCESS:          0  HIT:          0  MISS:          0
LLC WRITEBACK ACCESS:     478058  HIT:     419942  MISS:      58116
Heartbeat CPU 0 instructions: 46000002 cycles: 509118265 heartbeat IPC: 0.0879908 cumulative IPC: 0.0809251 (Simulation time: 3 hr 7 min 55 sec) 
Heartbeat CPU 0 instructions: 49000000 cycles: 408186808 heartbeat IPC: 0.177576 cumulative IPC: 0.108452 (Simulation time: 3 hr 7 min 57 sec) 
Heartbeat CPU 0 instructions: 45000001 cycles: 494579377 heartbeat IPC: 0.0828841 cumulative IPC: 0.0812873 (Simulation time: 3 hr 7 min 57 sec) 
Heartbeat CPU 0 instructions: 50000001 cycles: 415202424 heartbeat IPC: 0.142539 cumulative IPC: 0.109031 (Simulation time: 3 hr 8 min 11 sec) 
Heartbeat CPU 0 instructions: 46000000 cycles: 506613930 heartbeat IPC: 0.083094 cumulative IPC: 0.0813304 (Simulation time: 3 hr 8 min 13 sec) 
Heartbeat CPU 0 instructions: 47000002 cycles: 523163487 heartbeat IPC: 0.0711986 cumulative IPC: 0.0806627 (Simulation time: 3 hr 8 min 14 sec) 
Heartbeat CPU 0 instructions: 48000000 cycles: 531507701 heartbeat IPC: 0.119843 cumulative IPC: 0.0812807 (Simulation time: 3 hr 8 min 26 sec) 
Heartbeat CPU 0 instructions: 47000002 cycles: 518615811 heartbeat IPC: 0.0833204 cumulative IPC: 0.0813767 (Simulation time: 3 hr 8 min 27 sec) 
Heartbeat CPU 0 instructions: 51000001 cycles: 429808127 heartbeat IPC: 0.0684664 cumulative IPC: 0.107645 (Simulation time: 3 hr 8 min 29 sec) 
Heartbeat CPU 0 instructions: 52000000 cycles: 435344412 heartbeat IPC: 0.180626 cumulative IPC: 0.108578 (Simulation time: 3 hr 8 min 39 sec) 
Heartbeat CPU 0 instructions: 49000003 cycles: 542892869 heartbeat IPC: 0.0878338 cumulative IPC: 0.0814188 (Simulation time: 3 hr 8 min 39 sec) 
Heartbeat CPU 0 instructions: 48000000 cycles: 530344983 heartbeat IPC: 0.0852573 cumulative IPC: 0.0814629 (Simulation time: 3 hr 8 min 41 sec) 
Heartbeat CPU 0 instructions: 53000000 cycles: 440623029 heartbeat IPC: 0.189444 cumulative IPC: 0.109552 (Simulation time: 3 hr 8 min 50 sec) 
Heartbeat CPU 0 instructions: 49000000 cycles: 542489198 heartbeat IPC: 0.0823437 cumulative IPC: 0.0814827 (Simulation time: 3 hr 8 min 55 sec) 
Heartbeat CPU 0 instructions: 50000000 cycles: 556935053 heartbeat IPC: 0.0712138 cumulative IPC: 0.0811603 (Simulation time: 3 hr 8 min 55 sec) 
Heartbeat CPU 0 instructions: 51000000 cycles: 564927002 heartbeat IPC: 0.125126 cumulative IPC: 0.081785 (Simulation time: 3 hr 9 min 6 sec) 
Heartbeat CPU 0 instructions: 54000002 cycles: 456471944 heartbeat IPC: 0.0630959 cumulative IPC: 0.107931 (Simulation time: 3 hr 9 min 8 sec) 
Heartbeat CPU 0 instructions: 50000002 cycles: 554601627 heartbeat IPC: 0.08256 cumulative IPC: 0.0815063 (Simulation time: 3 hr 9 min 8 sec) 
Heartbeat CPU 0 instructions: 52000000 cycles: 575724665 heartbeat IPC: 0.0926126 cumulative IPC: 0.081989 (Simulation time: 3 hr 9 min 18 sec) 
Heartbeat CPU 0 instructions: 55000002 cycles: 462539345 heartbeat IPC: 0.164815 cumulative IPC: 0.108681 (Simulation time: 3 hr 9 min 19 sec) 
Finished CPU 0 instructions: 50000001 cycles: 460062875 cummulative IPC: 0.108681 (Simulation time: 3 hr 9 min 19 sec) 

ChampSim completed all CPUs

Region of Interest Statistics

CPU 0 cummulative IPC: 0.108681 instructions: 50000001 cycles: 460062875
LLC TOTAL     ACCESS:    5613622  HIT:    2212227  MISS:    3401395
LLC LOAD      ACCESS:    4492986  HIT:    1521356  MISS:    2971630
LLC RFO       ACCESS:      98859  HIT:      48367  MISS:      50492
LLC PREFETCH  ACCESS:          0  HIT:          0  MISS:          0
LLC WRITEBACK ACCESS:    1021777  HIT:     642504  MISS:     379273
Heartbeat CPU 0 instructions: 51000002 cycles: 566695489 heartbeat IPC: 0.0826866 cumulative IPC: 0.0815317 (Simulation time: 3 hr 9 min 20 sec) 
Heartbeat CPU 0 instructions: 53000000 cycles: 591010336 heartbeat IPC: 0.0654207 cumulative IPC: 0.0815587 (Simulation time: 3 hr 9 min 29 sec) 
Heartbeat CPU 0 instructions: 52000000 cycles: 578717343 heartbeat IPC: 0.0831817 cumulative IPC: 0.0815661 (Simulation time: 3 hr 9 min 29 sec) 
Heartbeat CPU 0 instructions: 54000000 cycles: 599400315 heartbeat IPC: 0.11919 cumulative IPC: 0.0820876 (Simulation time: 3 hr 9 min 36 sec) 
Heartbeat CPU 0 instructions: 53000000 cycles: 590862558 heartbeat IPC: 0.082337 cumulative IPC: 0.081582 (Simulation time: 3 hr 9 min 37 sec) 
Heartbeat CPU 0 instructions: 55000000 cycles: 608780300 heartbeat IPC: 0.10661 cumulative IPC: 0.082467 (Simulation time: 3 hr 9 min 43 sec) 
Finished CPU 0 instructions: 50000003 cycles: 606303305 cummulative IPC: 0.082467 (Simulation time: 3 hr 9 min 43 sec) 

ChampSim completed all CPUs

Region of Interest Statistics

CPU 0 cummulative IPC: 0.082467 instructions: 50000003 cycles: 606303305
LLC TOTAL     ACCESS:    6474144  HIT:    2944815  MISS:    3529329
LLC LOAD      ACCESS:    5697314  HIT:    2407469  MISS:    3289845
LLC RFO       ACCESS:      65889  HIT:      31278  MISS:      34611
LLC PREFETCH  ACCESS:          0  HIT:          0  MISS:          0
LLC WRITEBACK ACCESS:     710941  HIT:     506068  MISS:     204873
Heartbeat CPU 0 instructions: 54000000 cycles: 602866974 heartbeat IPC: 0.0833027 cumulative IPC: 0.0816164 (Simulation time: 3 hr 9 min 46 sec) 
Heartbeat CPU 0 instructions: 55000000 cycles: 614917692 heartbeat IPC: 0.0829826 cumulative IPC: 0.0816433 (Simulation time: 3 hr 9 min 55 sec) 
Finished CPU 0 instructions: 50000000 cycles: 612420293 cummulative IPC: 0.0816433 (Simulation time: 3 hr 9 min 55 sec) 

ChampSim completed all CPUs

Region of Interest Statistics

CPU 0 cummulative IPC: 0.0816433 instructions: 50000000 cycles: 612420293
LLC TOTAL     ACCESS:    7409437  HIT:    3912830  MISS:    3496607
LLC LOAD      ACCESS:    7242674  HIT:    3792913  MISS:    3449761
LLC RFO       ACCESS:      12945  HIT:       7258  MISS:       5687
LLC PREFETCH  ACCESS:          0  HIT:          0  MISS:          0
LLC WRITEBACK ACCESS:     153818  HIT:     112659  MISS:      41159
