
*** ChampSim Multicore Out-of-Order Simulator ***

Warmup Instructions: 5000000
Simulation Instructions: 50000000
Configuration: 1

Number of CPUs: 1

LLC sets: 2048
LLC ways: 16
*** ChampSim Multicore Out-of-Order Simulator ***

*** ChampSim Multicore Out-of-Order Simulator ***

Off-chip DRAM Channels: 1 Width: 64-bit Data Rate: 1600 MT/s

Warmup Instructions: 5000000
Simulation Instructions: 50000000
Configuration: 1
Number of CPUs: 1
LLC sets: 2048
LLC ways: 16
Off-chip DRAM Channels: 1 Width: 64-bit Data Rate: 1600 MT/s

Warmup Instructions: 5000000

Simulation Instructions: 50000000
Configuration: 1
Number of CPUs: 1
LLC sets: 2048
LLC ways: 16
Off-chip DRAM Channels: 1 Width: 64-bit Data Rate: 1600 MT/s

*** ChampSim Multicore Out-of-Order Simulator ***


*** ChampSim Multicore Out-of-Order Simulator ***

Warmup Instructions: 5000000
Simulation Instructions: 50000000
Configuration: 1
Warmup Instructions: 5000000
Simulation Instructions: 50000000
Configuration: 1
Number of CPUs: 1
LLC sets: 2048
LLC ways: 16
Number of CPUs: 1
Off-chip DRAM Channels: 1 Width: 64-bit Data Rate: 1600 MT/s

LLC sets: 2048
LLC ways: 16
Off-chip DRAM Channels: 1 Width: 64-bit Data Rate: 1600 MT/s


*** ChampSim Multicore Out-of-Order Simulator ***

Warmup Instructions: 5000000
Simulation Instructions: 50000000
Configuration: 1
Number of CPUs: 1
LLC sets: 2048
LLC ways: 16
Off-chip DRAM Channels: 1 Width: 64-bit Data Rate: 1600 MT/s



*** ChampSim Multicore Out-of-Order Simulator ***

*** ChampSim Multicore Out-of-Order Simulator ***

Warmup Instructions: 5000000
Simulation Instructions: 50000000
Configuration: 1
Number of CPUs: 1
LLC sets: 2048
LLC ways: 16
Warmup Instructions: 5000000
Simulation Instructions: 50000000
Configuration: 1
Number of CPUs: 1
LLC sets: 2048
LLC ways: 16
Off-chip DRAM Channels: 1 Width: 64-bit Data Rate: 1600 MT/s

Off-chip DRAM Channels: 1 Width: 64-bit Data Rate: 1600 MT/s



*** ChampSim Multicore Out-of-Order Simulator ***

*** ChampSim Multicore Out-of-Order Simulator ***

Warmup Instructions: 5000000
Simulation Instructions: 50000000
Configuration: 1
Warmup Instructions: 5000000
Number of CPUs: 1
Simulation Instructions: 50000000
LLC sets: 2048
LLC ways: 16
Configuration: 1
Number of CPUs: 1
LLC sets: 2048
LLC ways: 16
Off-chip DRAM Channels: 1 Width: 64-bit Data Rate: 1600 MT/s

Off-chip DRAM Channels: 1 Width: 64-bit Data Rate: 1600 MT/s


*** ChampSim Multicore Out-of-Order Simulator ***



*** ChampSim Multicore Out-of-Order Simulator ***

Warmup Instructions: 5000000
Simulation Instructions: 50000000
Configuration: 1
Number of CPUs: 1
LLC sets: 2048
LLC ways: 16
Off-chip DRAM Channels: 1 Width: 64-bit Data Rate: 1600 MT/s

Warmup Instructions: 5000000
Simulation Instructions: 50000000
Configuration: 1
*** ChampSim Multicore Out-of-Order Simulator ***



*** ChampSim Multicore Out-of-Order Simulator ***

Warmup Instructions: 5000000
Simulation Instructions: 50000000
Configuration: 1
Number of CPUs: 1
LLC sets: 2048
LLC ways: 16
Off-chip DRAM Channels: 1 Width: 64-bit Data Rate: 1600 MT/s


*** ChampSim Multicore Out-of-Order Simulator ***

Number of CPUs: 1
Warmup Instructions: 5000000
Simulation Instructions: 50000000
Configuration: 1
Warmup Instructions: 5000000
Number of CPUs: 1
LLC sets: 2048
LLC ways: 16


*** ChampSim Multicore Out-of-Order Simulator ***
*** ChampSim Multicore Out-of-Order Simulator ***



Warmup Instructions: 5000000
Simulation Instructions: 50000000
Configuration: 1
Warmup Instructions: 5000000
Number of CPUs: 1
Simulation Instructions: 50000000
LLC sets: 2048
LLC ways: 16
Configuration: 1
Number of CPUs: 1
LLC sets: 2048
LLC ways: 16
Off-chip DRAM Channels: 1 Width: 64-bit Data Rate: 1600 MT/s

*** ChampSim Multicore Out-of-Order Simulator ***

Off-chip DRAM Channels: 1 Width: 64-bit Data Rate: 1600 MT/s

Warmup Instructions: 5000000
Simulation Instructions: 50000000
Configuration: 1
Number of CPUs: 1
LLC sets: 2048
LLC ways: 16
Off-chip DRAM Channels: 1 Width: 64-bit Data Rate: 1600 MT/s


*** ChampSim Multicore Out-of-Order Simulator ***

Warmup Instructions: 5000000
Simulation Instructions: 50000000
Configuration: 1
Number of CPUs: 1
LLC sets: 2048
LLC ways: 16
Off-chip DRAM Channels: 1 Width: 64-bit Data Rate: 1600 MT/s

LLC sets: 2048
Off-chip DRAM Channels: 1 Width: 64-bit Data Rate: 1600 MT/s

Simulation Instructions: 50000000
Configuration: 1
Number of CPUs: 1
LLC sets: 2048
LLC ways: 16
Off-chip DRAM Channels: 1 Width: 64-bit Data Rate: 1600 MT/s


*** ChampSim Multicore Out-of-Order Simulator ***

Warmup Instructions: 5000000
Simulation Instructions: 50000000
Configuration: 1
Number of CPUs: 1
LLC sets: 2048
LLC ways: 16
Off-chip DRAM Channels: 1 Width: 64-bit Data Rate: 1600 MT/s

*** ChampSim Multicore Out-of-Order Simulator ***


Warmup Instructions: 5000000
Simulation Instructions: 50000000
Configuration: 1
Number of CPUs: 1
LLC sets: 2048
LLC ways: 16
Off-chip DRAM Channels: 1 Width: 64-bit Data Rate: 1600 MT/s

*** ChampSim Multicore Out-of-Order Simulator ***

Warmup Instructions: 5000000
Simulation Instructions: 50000000
Configuration: 1
Number of CPUs: 1
LLC sets: 2048
LLC ways: 16
Off-chip DRAM Channels: 1 Width: 64-bit Data Rate: 1600 MT/s


*** ChampSim Multicore Out-of-Order Simulator ***

Warmup Instructions: 5000000
Simulation Instructions: 50000000
Configuration: 1
Number of CPUs: 1
LLC sets: 2048
LLC ways: 16
Off-chip DRAM Channels: 1 Width: 64-bit Data Rate: 1600 MT/s


*** ChampSim Multicore Out-of-Order Simulator ***

Warmup Instructions: 5000000
Simulation Instructions: 50000000
Configuration: 1
Number of CPUs: 1
LLC sets: 2048
LLC ways: 16
Off-chip DRAM Channels: 1 Width: 64-bit Data Rate: 1600 MT/s


*** ChampSim Multicore Out-of-Order Simulator ***

Warmup Instructions: 5000000
Simulation Instructions: 50000000
Configuration: 1
Number of CPUs: 1
LLC sets: 2048
LLC ways: 16
Off-chip DRAM Channels: 1 Width: 64-bit Data Rate: 1600 MT/s

LLC ways: 16
Off-chip DRAM Channels: 1 Width: 64-bit Data Rate: 1600 MT/s


*** ChampSim Multicore Out-of-Order Simulator ***

Warmup Instructions: 5000000
Simulation Instructions: 50000000
Configuration: 1
Number of CPUs: 1
LLC sets: 2048
LLC ways: 16
Off-chip DRAM Channels: 1 Width: 64-bit Data Rate: 1600 MT/s


*** ChampSim Multicore Out-of-Order Simulator ***

Warmup Instructions: 5000000
Simulation Instructions: 50000000
Configuration: 1
Number of CPUs: 1
LLC sets: 2048
LLC ways: 16
Off-chip DRAM Channels: 1 Width: 64-bit Data Rate: 1600 MT/s


*** ChampSim Multicore Out-of-Order Simulator ***

Warmup Instructions: 5000000
Simulation Instructions: 50000000
Configuration: 1
Number of CPUs: 1
LLC sets: 2048
LLC ways: 16
Off-chip DRAM Channels: 1 Width: 64-bit Data Rate: 1600 MT/s


*** ChampSim Multicore Out-of-Order Simulator ***

Warmup Instructions: 5000000

*** ChampSim Multicore Out-of-Order Simulator ***




*** ChampSim Multicore Out-of-Order Simulator ***

Warmup Instructions: 5000000
Simulation Instructions: 50000000
Configuration: 1
Number of CPUs: 1
LLC sets: 2048
LLC ways: 16
Off-chip DRAM Channels: 1 Width: 64-bit Data Rate: 1600 MT/s

Warmup Instructions: 5000000
Simulation Instructions: 50000000
*** ChampSim Multicore Out-of-Order Simulator ***
*** ChampSim Multicore Out-of-Order Simulator ***



*** ChampSim Multicore Out-of-Order Simulator ***

Warmup Instructions: 5000000
Simulation Instructions: 50000000
Configuration: 1
Number of CPUs: 1
LLC sets: 2048
LLC ways: 16

Off-chip DRAM Channels: 1 Width: 64-bit Data Rate: 1600 MT/s

*** ChampSim Multicore Out-of-Order Simulator ***

Warmup Instructions: 5000000
Simulation Instructions: 50000000
Configuration: 1
Number of CPUs: 1
LLC sets: 2048
LLC ways: 16
Off-chip DRAM Channels: 1 Width: 64-bit Data Rate: 1600 MT/s


*** ChampSim Multicore Out-of-Order Simulator ***

Warmup Instructions: 5000000
Simulation Instructions: 50000000
Configuration: 1
Number of CPUs: 1
LLC sets: 2048
LLC ways: 16
Off-chip DRAM Channels: 1 Width: 64-bit Data Rate: 1600 MT/s


*** ChampSim Multicore Out-of-Order Simulator ***

Warmup Instructions: 5000000
Simulation Instructions: 50000000
Configuration: 1
Number of CPUs: 1
LLC sets: 2048
LLC ways: 16
Off-chip DRAM Channels: 1 Width: 64-bit Data Rate: 1600 MT/s

Configuration: 1
Simulation Instructions: 50000000
Number of CPUs: 1
LLC sets: 2048
LLC ways: 16

Off-chip DRAM Channels: 1 Width: 64-bit Data Rate: 1600 MT/s

Configuration: 1

Number of CPUs: 1
LLC sets: 2048
LLC ways: 16
*** ChampSim Multicore Out-of-Order Simulator ***


Off-chip DRAM Channels: 1 Width: 64-bit Data Rate: 1600 MT/s

*** ChampSim Multicore Out-of-Order Simulator ***
Warmup Instructions: 5000000

Simulation Instructions: 50000000
Warmup Instructions: 5000000
Configuration: 1
Simulation Instructions: 50000000
Configuration: 1
Number of CPUs: 1
Number of CPUs: 1
LLC sets: 2048
LLC sets: 2048
LLC ways: 16
Off-chip DRAM Channels: 1 Width: 64-bit Data Rate: 1600 MT/s



Warmup Instructions: 5000000
*** ChampSim Multicore Out-of-Order Simulator ***
Simulation Instructions: 50000000
*** ChampSim Multicore Out-of-Order Simulator ***

LLC ways: 16

Configuration: 1
Warmup Instructions: 5000000
Off-chip DRAM Channels: 1 Width: 64-bit Data Rate: 1600 MT/s

Simulation Instructions: 50000000
Configuration: 1
Warmup Instructions: 5000000
Number of CPUs: 1
LLC sets: 2048
LLC ways: 16
Off-chip DRAM Channels: 1 Width: 64-bit Data Rate: 1600 MT/s


*** ChampSim Multicore Out-of-Order Simulator ***

Warmup Instructions: 5000000
Simulation Instructions: 50000000
Configuration: 1
Number of CPUs: 1
LLC sets: 2048
LLC ways: 16
Off-chip DRAM Channels: 1 Width: 64-bit Data Rate: 1600 MT/s



*** ChampSim Multicore Out-of-Order Simulator ***

*** ChampSim Multicore Out-of-Order Simulator ***

Warmup Instructions: 5000000
Simulation Instructions: 50000000
Warmup Instructions: 5000000
Configuration: 1
Simulation Instructions: 50000000
Configuration: 1
Number of CPUs: 1
LLC sets: 2048
Number of CPUs: 1
LLC ways: 16
LLC sets: 2048
LLC ways: 16
Off-chip DRAM Channels: 1 Width: 64-bit Data Rate: 1600 MT/s

Off-chip DRAM Channels: 1 Width: 64-bit Data Rate: 1600 MT/s

Warmup Instructions: 5000000
*** ChampSim Multicore Out-of-Order Simulator ***
Simulation Instructions: 50000000

Configuration: 1

Number of CPUs: 1
LLC sets: 2048

LLC ways: 16
Warmup Instructions: 5000000
Simulation Instructions: 50000000
Configuration: 1
Number of CPUs: 1
LLC sets: 2048
LLC ways: 16

*** ChampSim Multicore Out-of-Order Simulator ***

Warmup Instructions: 5000000
Simulation Instructions: 50000000
Configuration: 1
Number of CPUs: 1
LLC sets: 2048
LLC ways: 16
Off-chip DRAM Channels: 1 Width: 64-bit Data Rate: 1600 MT/s


*** ChampSim Multicore Out-of-Order Simulator ***

Warmup Instructions: 5000000
Simulation Instructions: 50000000
Configuration: 1
Number of CPUs: 1
LLC sets: 2048
LLC ways: 16
Off-chip DRAM Channels: 1 Width: 64-bit Data Rate: 1600 MT/s


Simulation Instructions: 50000000
*** ChampSim Multicore Out-of-Order Simulator ***

Number of CPUs: 1
Warmup Instructions: 5000000
Simulation Instructions: 50000000
Configuration: 1
Number of CPUs: 1
LLC sets: 2048
LLC ways: 16
Configuration: 1
LLC sets: 2048
LLC ways: 16
Off-chip DRAM Channels: 1 Width: 64-bit Data Rate: 1600 MT/s

Number of CPUs: 1
LLC sets: 2048
LLC ways: 16
Off-chip DRAM Channels: 1 Width: 64-bit Data Rate: 1600 MT/s

Off-chip DRAM Channels: 1 Width: 64-bit Data Rate: 1600 MT/s

Off-chip DRAM Channels: 1 Width: 64-bit Data Rate: 1600 MT/s

*** ChampSim Multicore Out-of-Order Simulator ***

Warmup Instructions: 5000000
Simulation Instructions: 50000000
Configuration: 1
Number of CPUs: 1
LLC sets: 2048
LLC ways: 16
Off-chip DRAM Channels: 1 Width: 64-bit Data Rate: 1600 MT/s

Off-chip DRAM Channels: 1 Width: 64-bit Data Rate: 1600 MT/s

*** ChampSim Multicore Out-of-Order Simulator ***


Warmup Instructions: 5000000
Simulation Instructions: 50000000
Configuration: 1
*** ChampSim Multicore Out-of-Order Simulator ***
Number of CPUs: 1

LLC sets: 2048
LLC ways: 16
Off-chip DRAM Channels: 1 Width: 64-bit Data Rate: 1600 MT/s

Warmup Instructions: 5000000
Simulation Instructions: 50000000
Configuration: 1
Number of CPUs: 1
LLC sets: 2048
LLC ways: 16
Off-chip DRAM Channels: 1 Width: 64-bit Data Rate: 1600 MT/s

CPU 0 runs /datasets/cs240c-wi22-a00-public/data/Assignment2-gz/libquantum_1735B.trace.gz
Heartbeat CPU 0 instructions: 1000003 cycles: 333345 heartbeat IPC: 2.9999 cumulative IPC: 2.9999 (Simulation time: 0 hr 2 min 2 sec) 
CPU 0 runs /datasets/cs240c-wi22-a00-public/data/Assignment2-gz/libquantum_964B.trace.gz
Heartbeat CPU 0 instructions: 1000001 cycles: 333344 heartbeat IPC: 2.99991 cumulative IPC: 2.99991 (Simulation time: 0 hr 2 min 8 sec) 
CPU 0 runs /datasets/cs240c-wi22-a00-public/data/Assignment2-gz/libquantum_1210B.trace.gz
Heartbeat CPU 0 instructions: 1000003 cycles: 314916 heartbeat IPC: 3.17546 cumulative IPC: 3.17546 (Simulation time: 0 hr 2 min 11 sec) 
CPU 0 runs /datasets/cs240c-wi22-a00-public/data/Assignment2-gz/calculix_2655B.trace.gz
Heartbeat CPU 0 instructions: 1000003 cycles: 371402 heartbeat IPC: 2.69251 cumulative IPC: 2.69251 (Simulation time: 0 hr 2 min 21 sec) 
CPU 0 runs /datasets/cs240c-wi22-a00-public/data/Assignment2-gz/calculix_2670B.trace.gz
Heartbeat CPU 0 instructions: 1000003 cycles: 520140 heartbeat IPC: 1.92257 cumulative IPC: 1.92257 (Simulation time: 0 hr 2 min 23 sec) 
CPU 0 runs /datasets/cs240c-wi22-a00-public/data/Assignment2-gz/sphinx3_1339B.trace.gz
Heartbeat CPU 0 instructions: 1000001 cycles: 338437 heartbeat IPC: 2.95476 cumulative IPC: 2.95476 (Simulation time: 0 hr 2 min 35 sec) 
CPU 0 runs /datasets/cs240c-wi22-a00-public/data/Assignment2-gz/soplex_205B.trace.gz
Heartbeat CPU 0 instructions: 1000000 cycles: 394357 heartbeat IPC: 2.53577 cumulative IPC: 2.53577 (Simulation time: 0 hr 2 min 37 sec) 
CPU 0 runs /datasets/cs240c-wi22-a00-public/data/Assignment2-gz/zeusmp_600B.trace.gz
Heartbeat CPU 0 instructions: 1000000 cycles: 407507 heartbeat IPC: 2.45395 cumulative IPC: 2.45395 (Simulation time: 0 hr 2 min 37 sec) 
CPU 0 runs /datasets/cs240c-wi22-a00-public/data/Assignment2-gz/soplex_66B.trace.gz
Heartbeat CPU 0 instructions: 1000003 cycles: 416344 heartbeat IPC: 2.40187 cumulative IPC: 2.40187 (Simulation time: 0 hr 2 min 40 sec) 
CPU 0 runs /datasets/cs240c-wi22-a00-public/data/Assignment2-gz/sphinx3_2520B.trace.gz
Heartbeat CPU 0 instructions: 1000003 cycles: 338265 heartbeat IPC: 2.95627 cumulative IPC: 2.95627 (Simulation time: 0 hr 2 min 43 sec) 
CPU 0 runs /datasets/cs240c-wi22-a00-public/data/Assignment2-gz/omnetpp_4B.trace.gz
Heartbeat CPU 0 instructions: 1000001 cycles: 566835 heartbeat IPC: 1.76418 cumulative IPC: 1.76418 (Simulation time: 0 hr 2 min 47 sec) 
CPU 0 runs /datasets/cs240c-wi22-a00-public/data/Assignment2-gz/zeusmp_100B.trace.gz
Heartbeat CPU 0 instructions: 1000002 cycles: 464468 heartbeat IPC: 2.15301 cumulative IPC: 2.15301 (Simulation time: 0 hr 2 min 51 sec) 
CPU 0 runs /datasets/cs240c-wi22-a00-public/data/Assignment2-gz/omnetpp_17B.trace.gz
Heartbeat CPU 0 instructions: 1000000 cycles: 559780 heartbeat IPC: 1.78642 cumulative IPC: 1.78642 (Simulation time: 0 hr 2 min 53 sec) 
CPU 0 runs /datasets/cs240c-wi22-a00-public/data/Assignment2-gz/bzip2_259B.trace.gz
Heartbeat CPU 0 instructions: 1000002 cycles: 428954 heartbeat IPC: 2.33126 cumulative IPC: 2.33126 (Simulation time: 0 hr 2 min 54 sec) 
CPU 0 runs /datasets/cs240c-wi22-a00-public/data/Assignment2-gz/GemsFDTD_716B.trace.gz
Heartbeat CPU 0 instructions: 1000000 cycles: 415494 heartbeat IPC: 2.40677 cumulative IPC: 2.40677 (Simulation time: 0 hr 2 min 55 sec) 
CPU 0 runs /datasets/cs240c-wi22-a00-public/data/Assignment2-gz/lbm_1004B.trace.gz
Heartbeat CPU 0 instructions: 1000002 cycles: 391495 heartbeat IPC: 2.55432 cumulative IPC: 2.55432 (Simulation time: 0 hr 2 min 57 sec) 
CPU 0 runs /datasets/cs240c-wi22-a00-public/data/Assignment2-gz/sphinx3_883B.trace.gz
Heartbeat CPU 0 instructions: 1000003 cycles: 413061 heartbeat IPC: 2.42096 cumulative IPC: 2.42096 (Simulation time: 0 hr 2 min 57 sec) 
CPU 0 runs /datasets/cs240c-wi22-a00-public/data/Assignment2-gz/lbm_564B.trace.gz
Heartbeat CPU 0 instructions: 1000000 cycles: 390238 heartbeat IPC: 2.56254 cumulative IPC: 2.56254 (Simulation time: 0 hr 2 min 58 sec) 
CPU 0 runs /datasets/cs240c-wi22-a00-public/data/Assignment2-gz/zeusmp_300B.trace.gz
Heartbeat CPU 0 instructions: 1000003 cycles: 508391 heartbeat IPC: 1.967 cumulative IPC: 1.967 (Simulation time: 0 hr 2 min 59 sec) 
CPU 0 runs /datasets/cs240c-wi22-a00-public/data/Assignment2-gz/astar_23B.trace.gz
Heartbeat CPU 0 instructions: 1000000 cycles: 360107 heartbeat IPC: 2.77695 cumulative IPC: 2.77695 (Simulation time: 0 hr 3 min 2 sec) 
CPU 0 runs /datasets/cs240c-wi22-a00-public/data/Assignment2-gz/wrf_1650B.trace.gz
Heartbeat CPU 0 instructions: 1000000 cycles: 514412 heartbeat IPC: 1.94397 cumulative IPC: 1.94397 (Simulation time: 0 hr 3 min 1 sec) 
CPU 0 runs /datasets/cs240c-wi22-a00-public/data/Assignment2-gz/bzip2_183B.trace.gz
Heartbeat CPU 0 instructions: 1000000 cycles: 448069 heartbeat IPC: 2.2318 cumulative IPC: 2.2318 (Simulation time: 0 hr 3 min 5 sec) 
CPU 0 runs /datasets/cs240c-wi22-a00-public/data/Assignment2-gz/lbm_94B.trace.gz
Heartbeat CPU 0 instructions: 1000000 cycles: 422411 heartbeat IPC: 2.36736 cumulative IPC: 2.36736 (Simulation time: 0 hr 3 min 5 sec) 
CPU 0 runs /datasets/cs240c-wi22-a00-public/data/Assignment2-gz/milc_744B.trace.gz
Heartbeat CPU 0 instructions: 1000000 cycles: 383399 heartbeat IPC: 2.60825 cumulative IPC: 2.60825 (Simulation time: 0 hr 3 min 6 sec) 
CPU 0 runs /datasets/cs240c-wi22-a00-public/data/Assignment2-gz/wrf_1212B.trace.gz
Heartbeat CPU 0 instructions: 1000001 cycles: 599253 heartbeat IPC: 1.66875 cumulative IPC: 1.66875 (Simulation time: 0 hr 3 min 6 sec) 
CPU 0 runs /datasets/cs240c-wi22-a00-public/data/Assignment2-gz/milc_409B.trace.gz
Heartbeat CPU 0 instructions: 1000000 cycles: 402731 heartbeat IPC: 2.48305 cumulative IPC: 2.48305 (Simulation time: 0 hr 3 min 7 sec) 
CPU 0 runs /datasets/cs240c-wi22-a00-public/data/Assignment2-gz/astar_163B.trace.gz
Heartbeat CPU 0 instructions: 1000002 cycles: 530774 heartbeat IPC: 1.88404 cumulative IPC: 1.88404 (Simulation time: 0 hr 3 min 8 sec) 
CPU 0 runs /datasets/cs240c-wi22-a00-public/data/Assignment2-gz/calculix_3812B.trace.gz
Heartbeat CPU 0 instructions: 1000001 cycles: 475279 heartbeat IPC: 2.10403 cumulative IPC: 2.10403 (Simulation time: 0 hr 3 min 8 sec) 
CPU 0 runs /datasets/cs240c-wi22-a00-public/data/Assignment2-gz/leslie3d_1116B.trace.gz
Heartbeat CPU 0 instructions: 1000001 cycles: 532936 heartbeat IPC: 1.8764 cumulative IPC: 1.8764 (Simulation time: 0 hr 3 min 9 sec) 
CPU 0 runs /datasets/cs240c-wi22-a00-public/data/Assignment2-gz/perlbench_105B.trace.gz
Heartbeat CPU 0 instructions: 1000000 cycles: 578082 heartbeat IPC: 1.72986 cumulative IPC: 1.72986 (Simulation time: 0 hr 3 min 10 sec) 
CPU 0 runs /datasets/cs240c-wi22-a00-public/data/Assignment2-gz/mcf_46B.trace.gz
Heartbeat CPU 0 instructions: 1000002 cycles: 482129 heartbeat IPC: 2.07414 cumulative IPC: 2.07414 (Simulation time: 0 hr 3 min 14 sec) 
CPU 0 runs /datasets/cs240c-wi22-a00-public/data/Assignment2-gz/bzip2_281B.trace.gz
Heartbeat CPU 0 instructions: 1000000 cycles: 445723 heartbeat IPC: 2.24355 cumulative IPC: 2.24355 (Simulation time: 0 hr 3 min 17 sec) 
CPU 0 runs /datasets/cs240c-wi22-a00-public/data/Assignment2-gz/cactusADM_1495B.trace.gz
Heartbeat CPU 0 instructions: 1000003 cycles: 593354 heartbeat IPC: 1.68534 cumulative IPC: 1.68534 (Simulation time: 0 hr 3 min 17 sec) 
CPU 0 runs /datasets/cs240c-wi22-a00-public/data/Assignment2-gz/omnetpp_340B.trace.gz
Heartbeat CPU 0 instructions: 1000001 cycles: 578280 heartbeat IPC: 1.72927 cumulative IPC: 1.72927 (Simulation time: 0 hr 3 min 19 sec) 
CPU 0 runs /datasets/cs240c-wi22-a00-public/data/Assignment2-gz/leslie3d_94B.trace.gz
Heartbeat CPU 0 instructions: 1000003 cycles: 592147 heartbeat IPC: 1.68877 cumulative IPC: 1.68877 (Simulation time: 0 hr 3 min 21 sec) 
CPU 0 runs /datasets/cs240c-wi22-a00-public/data/Assignment2-gz/soplex_217B.trace.gz
Heartbeat CPU 0 instructions: 1000000 cycles: 437367 heartbeat IPC: 2.28641 cumulative IPC: 2.28641 (Simulation time: 0 hr 3 min 20 sec) 
CPU 0 runs /datasets/cs240c-wi22-a00-public/data/Assignment2-gz/milc_360B.trace.gz
Heartbeat CPU 0 instructions: 1000001 cycles: 549889 heartbeat IPC: 1.81855 cumulative IPC: 1.81855 (Simulation time: 0 hr 3 min 21 sec) 
CPU 0 runs /datasets/cs240c-wi22-a00-public/data/Assignment2-gz/gcc_39B.trace.gz
Heartbeat CPU 0 instructions: 1000000 cycles: 510392 heartbeat IPC: 1.95928 cumulative IPC: 1.95928 (Simulation time: 0 hr 3 min 22 sec) 
CPU 0 runs /datasets/cs240c-wi22-a00-public/data/Assignment2-gz/cactusADM_1039B.trace.gz
Heartbeat CPU 0 instructions: 1000000 cycles: 595112 heartbeat IPC: 1.68036 cumulative IPC: 1.68036 (Simulation time: 0 hr 3 min 25 sec) 
CPU 0 runs /datasets/cs240c-wi22-a00-public/data/Assignment2-gz/wrf_1228B.trace.gz
Heartbeat CPU 0 instructions: 1000003 cycles: 590333 heartbeat IPC: 1.69396 cumulative IPC: 1.69396 (Simulation time: 0 hr 3 min 28 sec) 
CPU 0 runs /datasets/cs240c-wi22-a00-public/data/Assignment2-gz/gcc_13B.trace.gz
Heartbeat CPU 0 instructions: 1000000 cycles: 644728 heartbeat IPC: 1.55104 cumulative IPC: 1.55104 (Simulation time: 0 hr 3 min 31 sec) 
CPU 0 runs /datasets/cs240c-wi22-a00-public/data/Assignment2-gz/GemsFDTD_712B.trace.gz
Heartbeat CPU 0 instructions: 1000003 cycles: 633083 heartbeat IPC: 1.57958 cumulative IPC: 1.57958 (Simulation time: 0 hr 3 min 35 sec) 
CPU 0 runs /datasets/cs240c-wi22-a00-public/data/Assignment2-gz/perlbench_53B.trace.gz
Heartbeat CPU 0 instructions: 1000000 cycles: 617122 heartbeat IPC: 1.62043 cumulative IPC: 1.62043 (Simulation time: 0 hr 3 min 34 sec) 
CPU 0 runs /datasets/cs240c-wi22-a00-public/data/Assignment2-gz/leslie3d_1186B.trace.gz
Heartbeat CPU 0 instructions: 1000002 cycles: 557793 heartbeat IPC: 1.79278 cumulative IPC: 1.79278 (Simulation time: 0 hr 3 min 42 sec) 
CPU 0 runs /datasets/cs240c-wi22-a00-public/data/Assignment2-gz/cactusADM_734B.trace.gz
Heartbeat CPU 0 instructions: 1000003 cycles: 592365 heartbeat IPC: 1.68815 cumulative IPC: 1.68815 (Simulation time: 0 hr 3 min 42 sec) 
CPU 0 runs /datasets/cs240c-wi22-a00-public/data/Assignment2-gz/perlbench_135B.trace.gz
Heartbeat CPU 0 instructions: 1000000 cycles: 601490 heartbeat IPC: 1.66254 cumulative IPC: 1.66254 (Simulation time: 0 hr 3 min 45 sec) 
CPU 0 runs /datasets/cs240c-wi22-a00-public/data/Assignment2-gz/astar_313B.trace.gz
Heartbeat CPU 0 instructions: 1000001 cycles: 678650 heartbeat IPC: 1.47352 cumulative IPC: 1.47352 (Simulation time: 0 hr 3 min 54 sec) 
CPU 0 runs /datasets/cs240c-wi22-a00-public/data/Assignment2-gz/mcf_250B.trace.gz
Heartbeat CPU 0 instructions: 1000000 cycles: 526982 heartbeat IPC: 1.8976 cumulative IPC: 1.8976 (Simulation time: 0 hr 3 min 55 sec) 
CPU 0 runs /datasets/cs240c-wi22-a00-public/data/Assignment2-gz/GemsFDTD_109B.trace.gz
Heartbeat CPU 0 instructions: 1000002 cycles: 577063 heartbeat IPC: 1.73292 cumulative IPC: 1.73292 (Simulation time: 0 hr 3 min 56 sec) 
CPU 0 runs /datasets/cs240c-wi22-a00-public/data/Assignment2-gz/gcc_56B.trace.gz
Heartbeat CPU 0 instructions: 1000003 cycles: 954224 heartbeat IPC: 1.04798 cumulative IPC: 1.04798 (Simulation time: 0 hr 3 min 56 sec) 
Heartbeat CPU 0 instructions: 2000001 cycles: 666677 heartbeat IPC: 3 cumulative IPC: 2.99995 (Simulation time: 0 hr 3 min 56 sec) 
CPU 0 runs /datasets/cs240c-wi22-a00-public/data/Assignment2-gz/mcf_158B.trace.gz
Heartbeat CPU 0 instructions: 1000002 cycles: 496494 heartbeat IPC: 2.01413 cumulative IPC: 2.01413 (Simulation time: 0 hr 4 min 1 sec) 
Heartbeat CPU 0 instructions: 2000000 cycles: 630173 heartbeat IPC: 3.17201 cumulative IPC: 3.17373 (Simulation time: 0 hr 4 min 10 sec) 
Heartbeat CPU 0 instructions: 2000003 cycles: 666677 heartbeat IPC: 3.00001 cumulative IPC: 2.99996 (Simulation time: 0 hr 4 min 13 sec) 
Heartbeat CPU 0 instructions: 2000001 cycles: 1039679 heartbeat IPC: 1.92478 cumulative IPC: 1.92367 (Simulation time: 0 hr 4 min 35 sec) 
Heartbeat CPU 0 instructions: 2000001 cycles: 746536 heartbeat IPC: 2.66571 cumulative IPC: 2.67904 (Simulation time: 0 hr 4 min 36 sec) 
Heartbeat CPU 0 instructions: 2000001 cycles: 814374 heartbeat IPC: 2.45781 cumulative IPC: 2.45588 (Simulation time: 0 hr 5 min 6 sec) 
Heartbeat CPU 0 instructions: 2000001 cycles: 691941 heartbeat IPC: 2.82882 cumulative IPC: 2.89042 (Simulation time: 0 hr 5 min 15 sec) 
Heartbeat CPU 0 instructions: 2000002 cycles: 890222 heartbeat IPC: 2.01668 cumulative IPC: 2.24663 (Simulation time: 0 hr 5 min 31 sec) 
Heartbeat CPU 0 instructions: 2000003 cycles: 861405 heartbeat IPC: 2.3124 cumulative IPC: 2.32179 (Simulation time: 0 hr 5 min 33 sec) 
Heartbeat CPU 0 instructions: 2000000 cycles: 735301 heartbeat IPC: 2.51866 cumulative IPC: 2.71997 (Simulation time: 0 hr 5 min 36 sec) 
Heartbeat CPU 0 instructions: 2000003 cycles: 1059161 heartbeat IPC: 1.81564 cumulative IPC: 1.88829 (Simulation time: 0 hr 5 min 42 sec) 
Heartbeat CPU 0 instructions: 2000001 cycles: 928928 heartbeat IPC: 2.15304 cumulative IPC: 2.15302 (Simulation time: 0 hr 5 min 41 sec) 
Heartbeat CPU 0 instructions: 2000001 cycles: 1135266 heartbeat IPC: 1.75923 cumulative IPC: 1.7617 (Simulation time: 0 hr 5 min 43 sec) 
Heartbeat CPU 0 instructions: 2000002 cycles: 842809 heartbeat IPC: 2.34486 cumulative IPC: 2.37302 (Simulation time: 0 hr 5 min 46 sec) 
Heartbeat CPU 0 instructions: 2000000 cycles: 812709 heartbeat IPC: 2.56214 cumulative IPC: 2.46091 (Simulation time: 0 hr 5 min 49 sec) 
Heartbeat CPU 0 instructions: 2000003 cycles: 830875 heartbeat IPC: 2.40744 cumulative IPC: 2.4071 (Simulation time: 0 hr 5 min 50 sec) 
Heartbeat CPU 0 instructions: 2000002 cycles: 1133969 heartbeat IPC: 1.74159 cumulative IPC: 1.76372 (Simulation time: 0 hr 5 min 56 sec) 
Heartbeat CPU 0 instructions: 2000001 cycles: 721007 heartbeat IPC: 2.77085 cumulative IPC: 2.7739 (Simulation time: 0 hr 6 min 0 sec) 
Heartbeat CPU 0 instructions: 2000003 cycles: 785321 heartbeat IPC: 2.53112 cumulative IPC: 2.54673 (Simulation time: 0 hr 6 min 0 sec) 
Heartbeat CPU 0 instructions: 2000000 cycles: 1028660 heartbeat IPC: 1.94459 cumulative IPC: 1.94428 (Simulation time: 0 hr 5 min 59 sec) 
Heartbeat CPU 0 instructions: 2000001 cycles: 782981 heartbeat IPC: 2.55437 cumulative IPC: 2.55434 (Simulation time: 0 hr 6 min 4 sec) 
Heartbeat CPU 0 instructions: 2000001 cycles: 766759 heartbeat IPC: 2.60852 cumulative IPC: 2.60838 (Simulation time: 0 hr 6 min 3 sec) 
Heartbeat CPU 0 instructions: 2000001 cycles: 951159 heartbeat IPC: 1.98772 cumulative IPC: 2.1027 (Simulation time: 0 hr 6 min 5 sec) 
Heartbeat CPU 0 instructions: 3000000 cycles: 1000009 heartbeat IPC: 3.00001 cumulative IPC: 2.99997 (Simulation time: 0 hr 6 min 11 sec) 
Heartbeat CPU 0 instructions: 2000003 cycles: 797984 heartbeat IPC: 2.77303 cumulative IPC: 2.50632 (Simulation time: 0 hr 6 min 13 sec) 
Heartbeat CPU 0 instructions: 2000000 cycles: 821532 heartbeat IPC: 2.44815 cumulative IPC: 2.43448 (Simulation time: 0 hr 6 min 18 sec) 
Heartbeat CPU 0 instructions: 2000003 cycles: 1060018 heartbeat IPC: 1.88949 cumulative IPC: 1.88676 (Simulation time: 0 hr 6 min 20 sec) 
Heartbeat CPU 0 instructions: 2000003 cycles: 899728 heartbeat IPC: 2.20263 cumulative IPC: 2.2229 (Simulation time: 0 hr 6 min 20 sec) 
Heartbeat CPU 0 instructions: 3000003 cycles: 945982 heartbeat IPC: 3.16648 cumulative IPC: 3.17131 (Simulation time: 0 hr 6 min 20 sec) 
Heartbeat CPU 0 instructions: 2000001 cycles: 1164382 heartbeat IPC: 1.70561 cumulative IPC: 1.71765 (Simulation time: 0 hr 6 min 24 sec) 
Heartbeat CPU 0 instructions: 2000002 cycles: 949743 heartbeat IPC: 2.10764 cumulative IPC: 2.10583 (Simulation time: 0 hr 6 min 26 sec) 
Heartbeat CPU 0 instructions: 2000000 cycles: 1198243 heartbeat IPC: 1.66948 cumulative IPC: 1.66911 (Simulation time: 0 hr 6 min 28 sec) 
Heartbeat CPU 0 instructions: 2000000 cycles: 882610 heartbeat IPC: 2.08386 cumulative IPC: 2.26601 (Simulation time: 0 hr 6 min 28 sec) 
Heartbeat CPU 0 instructions: 3000001 cycles: 989047 heartbeat IPC: 3.10202 cumulative IPC: 3.03322 (Simulation time: 0 hr 6 min 30 sec) 
Heartbeat CPU 0 instructions: 2000002 cycles: 967407 heartbeat IPC: 2.06067 cumulative IPC: 2.06738 (Simulation time: 0 hr 6 min 34 sec) 
Heartbeat CPU 0 instructions: 2000003 cycles: 1066398 heartbeat IPC: 1.87455 cumulative IPC: 1.87548 (Simulation time: 0 hr 6 min 41 sec) 
Heartbeat CPU 0 instructions: 2000000 cycles: 1186182 heartbeat IPC: 1.68682 cumulative IPC: 1.68608 (Simulation time: 0 hr 6 min 51 sec) 
Heartbeat CPU 0 instructions: 2000002 cycles: 1020757 heartbeat IPC: 1.95939 cumulative IPC: 1.95933 (Simulation time: 0 hr 6 min 54 sec) 
Heartbeat CPU 0 instructions: 2000002 cycles: 1206641 heartbeat IPC: 1.62735 cumulative IPC: 1.6575 (Simulation time: 0 hr 6 min 59 sec) 
Heartbeat CPU 0 instructions: 2000002 cycles: 1190036 heartbeat IPC: 1.68089 cumulative IPC: 1.68062 (Simulation time: 0 hr 7 min 0 sec) 
Heartbeat CPU 0 instructions: 3000002 cycles: 1121180 heartbeat IPC: 2.6692 cumulative IPC: 2.67575 (Simulation time: 0 hr 7 min 1 sec) 
Heartbeat CPU 0 instructions: 2000002 cycles: 1100530 heartbeat IPC: 1.96003 cumulative IPC: 1.81731 (Simulation time: 0 hr 7 min 2 sec) 
Heartbeat CPU 0 instructions: 3000001 cycles: 1559976 heartbeat IPC: 1.92198 cumulative IPC: 1.92311 (Simulation time: 0 hr 7 min 13 sec) 
Heartbeat CPU 0 instructions: 2000001 cycles: 1255808 heartbeat IPC: 1.56572 cumulative IPC: 1.5926 (Simulation time: 0 hr 7 min 12 sec) 
Heartbeat CPU 0 instructions: 2000003 cycles: 1099779 heartbeat IPC: 1.81855 cumulative IPC: 1.81855 (Simulation time: 0 hr 7 min 20 sec) 
Heartbeat CPU 0 instructions: 2000000 cycles: 1162467 heartbeat IPC: 1.71178 cumulative IPC: 1.72048 (Simulation time: 0 hr 7 min 23 sec) 
Heartbeat CPU 0 instructions: 2000001 cycles: 1257217 heartbeat IPC: 1.63268 cumulative IPC: 1.59082 (Simulation time: 0 hr 7 min 26 sec) 
Heartbeat CPU 0 instructions: 2000000 cycles: 1266011 heartbeat IPC: 1.57995 cumulative IPC: 1.57977 (Simulation time: 0 hr 7 min 35 sec) 
Heartbeat CPU 0 instructions: 2000001 cycles: 1185295 heartbeat IPC: 1.68654 cumulative IPC: 1.68734 (Simulation time: 0 hr 7 min 47 sec) 
Heartbeat CPU 0 instructions: 2000000 cycles: 1212073 heartbeat IPC: 1.63778 cumulative IPC: 1.65007 (Simulation time: 0 hr 7 min 57 sec) 
Heartbeat CPU 0 instructions: 3000003 cycles: 1221893 heartbeat IPC: 2.45388 cumulative IPC: 2.45521 (Simulation time: 0 hr 8 min 0 sec) 
Heartbeat CPU 0 instructions: 2000000 cycles: 1204525 heartbeat IPC: 1.54623 cumulative IPC: 1.66041 (Simulation time: 0 hr 8 min 2 sec) 
Heartbeat CPU 0 instructions: 2000001 cycles: 1898520 heartbeat IPC: 1.05899 cumulative IPC: 1.05345 (Simulation time: 0 hr 8 min 12 sec) 
Heartbeat CPU 0 instructions: 2000003 cycles: 1028827 heartbeat IPC: 1.99265 cumulative IPC: 1.94396 (Simulation time: 0 hr 8 min 13 sec) 
Heartbeat CPU 0 instructions: 2000003 cycles: 1269568 heartbeat IPC: 1.69229 cumulative IPC: 1.57534 (Simulation time: 0 hr 8 min 21 sec) 
Heartbeat CPU 0 instructions: 2000002 cycles: 992091 heartbeat IPC: 2.01777 cumulative IPC: 2.01595 (Simulation time: 0 hr 8 min 26 sec) 
Heartbeat CPU 0 instructions: 4000000 cycles: 1333342 heartbeat IPC: 3 cumulative IPC: 2.99998 (Simulation time: 0 hr 8 min 34 sec) 
Heartbeat CPU 0 instructions: 2000003 cycles: 1154104 heartbeat IPC: 1.73298 cumulative IPC: 1.73295 (Simulation time: 0 hr 8 min 36 sec) 
Heartbeat CPU 0 instructions: 4000000 cycles: 1260334 heartbeat IPC: 3.18114 cumulative IPC: 3.17376 (Simulation time: 0 hr 8 min 44 sec) 
Heartbeat CPU 0 instructions: 3000003 cycles: 1393617 heartbeat IPC: 2.15198 cumulative IPC: 2.15267 (Simulation time: 0 hr 8 min 49 sec) 
Heartbeat CPU 0 instructions: 3000000 cycles: 1081973 heartbeat IPC: 2.56389 cumulative IPC: 2.77271 (Simulation time: 0 hr 8 min 51 sec) 
Heartbeat CPU 0 instructions: 3000003 cycles: 1181536 heartbeat IPC: 2.24098 cumulative IPC: 2.53907 (Simulation time: 0 hr 8 min 56 sec) 
Heartbeat CPU 0 instructions: 3000002 cycles: 1602081 heartbeat IPC: 1.84189 cumulative IPC: 1.87257 (Simulation time: 0 hr 9 min 0 sec) 
Heartbeat CPU 0 instructions: 3000000 cycles: 1211869 heartbeat IPC: 2.50526 cumulative IPC: 2.47552 (Simulation time: 0 hr 9 min 0 sec) 
Heartbeat CPU 0 instructions: 3000001 cycles: 1769228 heartbeat IPC: 1.57416 cumulative IPC: 1.69566 (Simulation time: 0 hr 9 min 1 sec) 
Heartbeat CPU 0 instructions: 3000000 cycles: 1286935 heartbeat IPC: 2.19269 cumulative IPC: 2.33112 (Simulation time: 0 hr 9 min 3 sec) 
Heartbeat CPU 0 instructions: 3000001 cycles: 1722590 heartbeat IPC: 1.70264 cumulative IPC: 1.74156 (Simulation time: 0 hr 9 min 4 sec) 
Heartbeat CPU 0 instructions: 4000000 cycles: 1290772 heartbeat IPC: 3.31427 cumulative IPC: 3.09892 (Simulation time: 0 hr 9 min 5 sec) 
Heartbeat CPU 0 instructions: 3000002 cycles: 1175571 heartbeat IPC: 2.56246 cumulative IPC: 2.55195 (Simulation time: 0 hr 9 min 23 sec) 
Heartbeat CPU 0 instructions: 3000001 cycles: 1287146 heartbeat IPC: 2.34884 cumulative IPC: 2.33074 (Simulation time: 0 hr 9 min 26 sec) 
Heartbeat CPU 0 instructions: 3000000 cycles: 1079958 heartbeat IPC: 2.78589 cumulative IPC: 2.77789 (Simulation time: 0 hr 9 min 29 sec) 
Heartbeat CPU 0 instructions: 3000003 cycles: 1252417 heartbeat IPC: 2.44136 cumulative IPC: 2.39537 (Simulation time: 0 hr 9 min 32 sec) 
Heartbeat CPU 0 instructions: 4000000 cycles: 1487470 heartbeat IPC: 2.73007 cumulative IPC: 2.68913 (Simulation time: 0 hr 9 min 35 sec) 
Heartbeat CPU 0 instructions: 3000001 cycles: 1457648 heartbeat IPC: 1.97438 cumulative IPC: 2.05811 (Simulation time: 0 hr 9 min 41 sec) 
Heartbeat CPU 0 instructions: 3000002 cycles: 1589730 heartbeat IPC: 1.88782 cumulative IPC: 1.88711 (Simulation time: 0 hr 9 min 45 sec) 
Heartbeat CPU 0 instructions: 3000001 cycles: 1546521 heartbeat IPC: 1.93102 cumulative IPC: 1.93984 (Simulation time: 0 hr 9 min 45 sec) 
Heartbeat CPU 0 instructions: 3000001 cycles: 1150170 heartbeat IPC: 2.60817 cumulative IPC: 2.60831 (Simulation time: 0 hr 9 min 46 sec) 
Heartbeat CPU 0 instructions: 3000002 cycles: 1314518 heartbeat IPC: 2.41086 cumulative IPC: 2.28221 (Simulation time: 0 hr 9 min 49 sec) 
Heartbeat CPU 0 instructions: 3000001 cycles: 1174398 heartbeat IPC: 2.55482 cumulative IPC: 2.5545 (Simulation time: 0 hr 9 min 52 sec) 
Heartbeat CPU 0 instructions: 3000000 cycles: 1248969 heartbeat IPC: 2.21736 cumulative IPC: 2.40198 (Simulation time: 0 hr 9 min 54 sec) 
Heartbeat CPU 0 instructions: 3000000 cycles: 1360070 heartbeat IPC: 2.12834 cumulative IPC: 2.20577 (Simulation time: 0 hr 10 min 0 sec) 
Heartbeat CPU 0 instructions: 3000001 cycles: 1726618 heartbeat IPC: 1.77861 cumulative IPC: 1.7375 (Simulation time: 0 hr 10 min 1 sec) 
Heartbeat CPU 0 instructions: 4000000 cycles: 2081696 heartbeat IPC: 1.91674 cumulative IPC: 1.92151 (Simulation time: 0 hr 10 min 9 sec) 
Heartbeat CPU 0 instructions: 3000002 cycles: 1425613 heartbeat IPC: 2.10141 cumulative IPC: 2.10436 (Simulation time: 0 hr 10 min 18 sec) 
Heartbeat CPU 0 instructions: 3000003 cycles: 1294919 heartbeat IPC: 2.11244 cumulative IPC: 2.31675 (Simulation time: 0 hr 10 min 21 sec) 
Heartbeat CPU 0 instructions: 3000003 cycles: 1600517 heartbeat IPC: 1.87224 cumulative IPC: 1.8744 (Simulation time: 0 hr 10 min 44 sec) 
Heartbeat CPU 0 instructions: 3000001 cycles: 1797630 heartbeat IPC: 1.66837 cumulative IPC: 1.66886 (Simulation time: 0 hr 10 min 47 sec) 
Heartbeat CPU 0 instructions: 3000002 cycles: 1529819 heartbeat IPC: 1.9644 cumulative IPC: 1.96102 (Simulation time: 0 hr 10 min 49 sec) 
Heartbeat CPU 0 instructions: 5000001 cycles: 1666677 heartbeat IPC: 2.99999 cumulative IPC: 2.99998 (Simulation time: 0 hr 10 min 55 sec) 

Warmup complete CPU 0 instructions: 5000001 cycles: 1666677 (Simulation time: 0 hr 10 min 55 sec) 

Heartbeat CPU 0 instructions: 3000000 cycles: 1483780 heartbeat IPC: 1.93658 cumulative IPC: 2.02186 (Simulation time: 0 hr 11 min 7 sec) 
Heartbeat CPU 0 instructions: 5000000 cycles: 1576820 heartbeat IPC: 3.1597 cumulative IPC: 3.17094 (Simulation time: 0 hr 11 min 7 sec) 

Warmup complete CPU 0 instructions: 5000004 cycles: 1576821 (Simulation time: 0 hr 11 min 7 sec) 

Heartbeat CPU 0 instructions: 3000003 cycles: 1779362 heartbeat IPC: 1.68583 cumulative IPC: 1.686 (Simulation time: 0 hr 11 min 7 sec) 
Heartbeat CPU 0 instructions: 4000000 cycles: 1629601 heartbeat IPC: 2.45273 cumulative IPC: 2.45459 (Simulation time: 0 hr 11 min 7 sec) 
Heartbeat CPU 0 instructions: 3000003 cycles: 1662911 heartbeat IPC: 1.28156 cumulative IPC: 1.80407 (Simulation time: 0 hr 11 min 20 sec) 
Heartbeat CPU 0 instructions: 3000002 cycles: 1854530 heartbeat IPC: 1.54347 cumulative IPC: 1.61766 (Simulation time: 0 hr 11 min 25 sec) 
Heartbeat CPU 0 instructions: 5000000 cycles: 1592498 heartbeat IPC: 3.31427 cumulative IPC: 3.13972 (Simulation time: 0 hr 11 min 28 sec) 

Warmup complete CPU 0 instructions: 5000004 cycles: 1592499 (Simulation time: 0 hr 11 min 28 sec) 

Heartbeat CPU 0 instructions: 3000003 cycles: 1785063 heartbeat IPC: 1.6806 cumulative IPC: 1.68061 (Simulation time: 0 hr 11 min 34 sec) 
Heartbeat CPU 0 instructions: 3000000 cycles: 1735178 heartbeat IPC: 2.09222 cumulative IPC: 1.72893 (Simulation time: 0 hr 11 min 37 sec) 
Heartbeat CPU 0 instructions: 3000000 cycles: 1708674 heartbeat IPC: 1.64434 cumulative IPC: 1.75575 (Simulation time: 0 hr 11 min 44 sec) 
Heartbeat CPU 0 instructions: 3000002 cycles: 1912368 heartbeat IPC: 1.52309 cumulative IPC: 1.56874 (Simulation time: 0 hr 11 min 57 sec) 
Heartbeat CPU 0 instructions: 3000001 cycles: 1760250 heartbeat IPC: 1.67285 cumulative IPC: 1.7043 (Simulation time: 0 hr 11 min 58 sec) 
Heartbeat CPU 0 instructions: 4000000 cycles: 1858062 heartbeat IPC: 2.1531 cumulative IPC: 2.15278 (Simulation time: 0 hr 12 min 2 sec) 
Heartbeat CPU 0 instructions: 5000003 cycles: 1860159 heartbeat IPC: 2.68321 cumulative IPC: 2.68794 (Simulation time: 0 hr 12 min 6 sec) 

Warmup complete CPU 0 instructions: 5000003 cycles: 1860159 (Simulation time: 0 hr 12 min 6 sec) 

Heartbeat CPU 0 instructions: 4000000 cycles: 1519954 heartbeat IPC: 2.95492 cumulative IPC: 2.63166 (Simulation time: 0 hr 12 min 8 sec) 
Heartbeat CPU 0 instructions: 3000001 cycles: 1649612 heartbeat IPC: 1.81873 cumulative IPC: 1.81861 (Simulation time: 0 hr 12 min 10 sec) 
Heartbeat CPU 0 instructions: 3000000 cycles: 1898499 heartbeat IPC: 1.58106 cumulative IPC: 1.5802 (Simulation time: 0 hr 12 min 18 sec) 
Heartbeat CPU 0 instructions: 4000000 cycles: 2334161 heartbeat IPC: 1.77012 cumulative IPC: 1.71368 (Simulation time: 0 hr 12 min 17 sec) 
Heartbeat CPU 0 instructions: 3000003 cycles: 1778084 heartbeat IPC: 1.68694 cumulative IPC: 1.68721 (Simulation time: 0 hr 12 min 21 sec) 
Heartbeat CPU 0 instructions: 3000000 cycles: 1836606 heartbeat IPC: 1.6012 cumulative IPC: 1.63345 (Simulation time: 0 hr 12 min 20 sec) 
Heartbeat CPU 0 instructions: 4000000 cycles: 2087846 heartbeat IPC: 2.0586 cumulative IPC: 1.91585 (Simulation time: 0 hr 12 min 22 sec) 
Heartbeat CPU 0 instructions: 4000000 cycles: 2291778 heartbeat IPC: 1.75689 cumulative IPC: 1.74537 (Simulation time: 0 hr 12 min 25 sec) 
Heartbeat CPU 0 instructions: 4000000 cycles: 1685678 heartbeat IPC: 2.50921 cumulative IPC: 2.37293 (Simulation time: 0 hr 12 min 29 sec) 
Heartbeat CPU 0 instructions: 4000000 cycles: 1526801 heartbeat IPC: 2.24806 cumulative IPC: 2.61986 (Simulation time: 0 hr 12 min 29 sec) 
Heartbeat CPU 0 instructions: 4000000 cycles: 1632043 heartbeat IPC: 2.37997 cumulative IPC: 2.45092 (Simulation time: 0 hr 12 min 31 sec) 
Heartbeat CPU 0 instructions: 4000000 cycles: 1744228 heartbeat IPC: 2.18678 cumulative IPC: 2.29328 (Simulation time: 0 hr 12 min 34 sec) 
Heartbeat CPU 0 instructions: 3000002 cycles: 1512264 heartbeat IPC: 2.06852 cumulative IPC: 1.98378 (Simulation time: 0 hr 12 min 40 sec) 
Heartbeat CPU 0 instructions: 3000000 cycles: 1851620 heartbeat IPC: 1.54537 cumulative IPC: 1.6202 (Simulation time: 0 hr 12 min 48 sec) 
Heartbeat CPU 0 instructions: 4000000 cycles: 1637645 heartbeat IPC: 2.59586 cumulative IPC: 2.44253 (Simulation time: 0 hr 12 min 48 sec) 
Heartbeat CPU 0 instructions: 3000001 cycles: 2885884 heartbeat IPC: 1.0128 cumulative IPC: 1.03954 (Simulation time: 0 hr 12 min 51 sec) 
Heartbeat CPU 0 instructions: 4000000 cycles: 1565781 heartbeat IPC: 2.56272 cumulative IPC: 2.55464 (Simulation time: 0 hr 12 min 55 sec) 
Heartbeat CPU 0 instructions: 3000003 cycles: 1947007 heartbeat IPC: 1.47615 cumulative IPC: 1.54083 (Simulation time: 0 hr 12 min 59 sec) 
Heartbeat CPU 0 instructions: 4000000 cycles: 1441419 heartbeat IPC: 2.76655 cumulative IPC: 2.77504 (Simulation time: 0 hr 12 min 59 sec) 
Heartbeat CPU 0 instructions: 5000000 cycles: 2602077 heartbeat IPC: 1.92167 cumulative IPC: 1.92154 (Simulation time: 0 hr 13 min 6 sec) 

Warmup complete CPU 0 instructions: 5000001 cycles: 2602078 (Simulation time: 0 hr 13 min 6 sec) 

Heartbeat CPU 0 instructions: 3000000 cycles: 1488380 heartbeat IPC: 2.01495 cumulative IPC: 2.01561 (Simulation time: 0 hr 13 min 7 sec) 
Heartbeat CPU 0 instructions: 4000000 cycles: 1928242 heartbeat IPC: 2.12497 cumulative IPC: 2.07443 (Simulation time: 0 hr 13 min 15 sec) 
Heartbeat CPU 0 instructions: 4000000 cycles: 1753060 heartbeat IPC: 2.28028 cumulative IPC: 2.28172 (Simulation time: 0 hr 13 min 16 sec) 
Heartbeat CPU 0 instructions: 4000000 cycles: 1533552 heartbeat IPC: 2.60836 cumulative IPC: 2.60832 (Simulation time: 0 hr 13 min 15 sec) 
Heartbeat CPU 0 instructions: 4000000 cycles: 1722581 heartbeat IPC: 2.75854 cumulative IPC: 2.3221 (Simulation time: 0 hr 13 min 18 sec) 
Heartbeat CPU 0 instructions: 4000000 cycles: 2119462 heartbeat IPC: 1.88774 cumulative IPC: 1.88727 (Simulation time: 0 hr 13 min 19 sec) 
Heartbeat CPU 0 instructions: 4000000 cycles: 1686730 heartbeat IPC: 2.28435 cumulative IPC: 2.37145 (Simulation time: 0 hr 13 min 20 sec) 
Heartbeat CPU 0 instructions: 4000000 cycles: 2064469 heartbeat IPC: 1.93069 cumulative IPC: 1.93754 (Simulation time: 0 hr 13 min 30 sec) 
Heartbeat CPU 0 instructions: 4000000 cycles: 1570637 heartbeat IPC: 2.52373 cumulative IPC: 2.54674 (Simulation time: 0 hr 13 min 50 sec) 
Heartbeat CPU 0 instructions: 4000000 cycles: 2306048 heartbeat IPC: 1.72583 cumulative IPC: 1.73457 (Simulation time: 0 hr 13 min 51 sec) 
Heartbeat CPU 0 instructions: 3000000 cycles: 1730667 heartbeat IPC: 1.73441 cumulative IPC: 1.73344 (Simulation time: 0 hr 13 min 53 sec) 
Heartbeat CPU 0 instructions: 4000000 cycles: 1895811 heartbeat IPC: 2.12676 cumulative IPC: 2.10992 (Simulation time: 0 hr 14 min 2 sec) 
Heartbeat CPU 0 instructions: 5000001 cycles: 2037319 heartbeat IPC: 2.45268 cumulative IPC: 2.45421 (Simulation time: 0 hr 14 min 8 sec) 

Warmup complete CPU 0 instructions: 5000001 cycles: 2037319 (Simulation time: 0 hr 14 min 8 sec) 

Heartbeat CPU 0 instructions: 4000000 cycles: 1633291 heartbeat IPC: 2.95532 cumulative IPC: 2.44904 (Simulation time: 0 hr 14 min 14 sec) 
Heartbeat CPU 0 instructions: 4000000 cycles: 2133411 heartbeat IPC: 1.87654 cumulative IPC: 1.87493 (Simulation time: 0 hr 14 min 42 sec) 
Heartbeat CPU 0 instructions: 4000000 cycles: 2396228 heartbeat IPC: 1.67057 cumulative IPC: 1.66929 (Simulation time: 0 hr 14 min 52 sec) 
Heartbeat CPU 0 instructions: 4000000 cycles: 2038994 heartbeat IPC: 1.96396 cumulative IPC: 1.96175 (Simulation time: 0 hr 15 min 3 sec) 
Heartbeat CPU 0 instructions: 6000001 cycles: 4818952 heartbeat IPC: 0.309938 cumulative IPC: 0.309937 (Simulation time: 0 hr 15 min 3 sec) 
Heartbeat CPU 0 instructions: 6000002 cycles: 3664216 heartbeat IPC: 0.500616 cumulative IPC: 0.500616 (Simulation time: 0 hr 15 min 3 sec) 
Heartbeat CPU 0 instructions: 6000003 cycles: 2440238 heartbeat IPC: 1.7239 cumulative IPC: 1.7239 (Simulation time: 0 hr 15 min 6 sec) 
Heartbeat CPU 0 instructions: 6000001 cycles: 4646735 heartbeat IPC: 0.325742 cumulative IPC: 0.325741 (Simulation time: 0 hr 15 min 10 sec) 
Heartbeat CPU 0 instructions: 4000000 cycles: 2372043 heartbeat IPC: 1.68724 cumulative IPC: 1.68631 (Simulation time: 0 hr 15 min 12 sec) 
Heartbeat CPU 0 instructions: 4000000 cycles: 1993996 heartbeat IPC: 1.95995 cumulative IPC: 2.00602 (Simulation time: 0 hr 15 min 18 sec) 
Heartbeat CPU 0 instructions: 4000000 cycles: 2380257 heartbeat IPC: 1.68012 cumulative IPC: 1.68049 (Simulation time: 0 hr 15 min 21 sec) 
Heartbeat CPU 0 instructions: 5000003 cycles: 2322491 heartbeat IPC: 2.15319 cumulative IPC: 2.15286 (Simulation time: 0 hr 15 min 22 sec) 

Warmup complete CPU 0 instructions: 5000003 cycles: 2322491 (Simulation time: 0 hr 15 min 22 sec) 

Heartbeat CPU 0 instructions: 5000002 cycles: 2893169 heartbeat IPC: 1.78889 cumulative IPC: 1.72821 (Simulation time: 0 hr 15 min 36 sec) 

Warmup complete CPU 0 instructions: 5000002 cycles: 2893169 (Simulation time: 0 hr 15 min 36 sec) 

Heartbeat CPU 0 instructions: 5000001 cycles: 2571024 heartbeat IPC: 2.06963 cumulative IPC: 1.94475 (Simulation time: 0 hr 15 min 37 sec) 

Warmup complete CPU 0 instructions: 5000001 cycles: 2571024 (Simulation time: 0 hr 15 min 37 sec) 

Heartbeat CPU 0 instructions: 5000001 cycles: 1897210 heartbeat IPC: 2.65072 cumulative IPC: 2.63545 (Simulation time: 0 hr 15 min 38 sec) 

Warmup complete CPU 0 instructions: 5000001 cycles: 1897210 (Simulation time: 0 hr 15 min 38 sec) 

Heartbeat CPU 0 instructions: 5000000 cycles: 2865807 heartbeat IPC: 1.74207 cumulative IPC: 1.74471 (Simulation time: 0 hr 15 min 38 sec) 

Warmup complete CPU 0 instructions: 5000002 cycles: 2865808 (Simulation time: 0 hr 15 min 38 sec) 

Heartbeat CPU 0 instructions: 4000000 cycles: 2212947 heartbeat IPC: 2.09306 cumulative IPC: 1.80754 (Simulation time: 0 hr 15 min 41 sec) 
Heartbeat CPU 0 instructions: 4000000 cycles: 2502060 heartbeat IPC: 1.54433 cumulative IPC: 1.59868 (Simulation time: 0 hr 15 min 52 sec) 
Heartbeat CPU 0 instructions: 5000000 cycles: 2159515 heartbeat IPC: 2.40797 cumulative IPC: 2.31533 (Simulation time: 0 hr 15 min 54 sec) 

Warmup complete CPU 0 instructions: 5000001 cycles: 2159516 (Simulation time: 0 hr 15 min 54 sec) 

Heartbeat CPU 0 instructions: 5000001 cycles: 2104126 heartbeat IPC: 2.38979 cumulative IPC: 2.37628 (Simulation time: 0 hr 15 min 56 sec) 

Warmup complete CPU 0 instructions: 5000001 cycles: 2104126 (Simulation time: 0 hr 15 min 56 sec) 

Heartbeat CPU 0 instructions: 5000000 cycles: 1960940 heartbeat IPC: 2.53063 cumulative IPC: 2.5498 (Simulation time: 0 hr 16 min 4 sec) 

Warmup complete CPU 0 instructions: 5000004 cycles: 1960941 (Simulation time: 0 hr 16 min 4 sec) 

Heartbeat CPU 0 instructions: 5000001 cycles: 2022321 heartbeat IPC: 2.56228 cumulative IPC: 2.47241 (Simulation time: 0 hr 16 min 7 sec) 

Warmup complete CPU 0 instructions: 5000001 cycles: 2022321 (Simulation time: 0 hr 16 min 7 sec) 

Heartbeat CPU 0 instructions: 5000000 cycles: 2038408 heartbeat IPC: 2.49524 cumulative IPC: 2.45289 (Simulation time: 0 hr 16 min 8 sec) 

Warmup complete CPU 0 instructions: 5000001 cycles: 2038410 (Simulation time: 0 hr 16 min 8 sec) 

Heartbeat CPU 0 instructions: 6000001 cycles: 3075679 heartbeat IPC: 2.11148 cumulative IPC: 2.11148 (Simulation time: 0 hr 16 min 10 sec) 
Heartbeat CPU 0 instructions: 4000000 cycles: 2528843 heartbeat IPC: 1.62212 cumulative IPC: 1.58175 (Simulation time: 0 hr 16 min 9 sec) 
Heartbeat CPU 0 instructions: 4000000 cycles: 2443121 heartbeat IPC: 1.2817 cumulative IPC: 1.63725 (Simulation time: 0 hr 16 min 9 sec) 
Heartbeat CPU 0 instructions: 5000003 cycles: 1865235 heartbeat IPC: 2.95479 cumulative IPC: 2.68063 (Simulation time: 0 hr 16 min 11 sec) 

Warmup complete CPU 0 instructions: 5000003 cycles: 1865235 (Simulation time: 0 hr 16 min 11 sec) 

Heartbeat CPU 0 instructions: 5000001 cycles: 2071699 heartbeat IPC: 2.59761 cumulative IPC: 2.41348 (Simulation time: 0 hr 16 min 16 sec) 

Warmup complete CPU 0 instructions: 5000001 cycles: 2071699 (Simulation time: 0 hr 16 min 16 sec) 

Heartbeat CPU 0 instructions: 5000000 cycles: 1803503 heartbeat IPC: 2.76179 cumulative IPC: 2.77238 (Simulation time: 0 hr 16 min 27 sec) 

Warmup complete CPU 0 instructions: 5000004 cycles: 1803504 (Simulation time: 0 hr 16 min 27 sec) 

Heartbeat CPU 0 instructions: 4000000 cycles: 2319463 heartbeat IPC: 1.63723 cumulative IPC: 1.72454 (Simulation time: 0 hr 16 min 31 sec) 
Heartbeat CPU 0 instructions: 4000000 cycles: 2381489 heartbeat IPC: 1.60968 cumulative IPC: 1.67962 (Simulation time: 0 hr 16 min 31 sec) 
Heartbeat CPU 0 instructions: 5000002 cycles: 2174895 heartbeat IPC: 2.3706 cumulative IPC: 2.29896 (Simulation time: 0 hr 16 min 35 sec) 

Warmup complete CPU 0 instructions: 5000002 cycles: 2174895 (Simulation time: 0 hr 16 min 35 sec) 

Heartbeat CPU 0 instructions: 4000000 cycles: 2497342 heartbeat IPC: 1.51346 cumulative IPC: 1.6017 (Simulation time: 0 hr 16 min 41 sec) 
Heartbeat CPU 0 instructions: 4000000 cycles: 2199464 heartbeat IPC: 1.81867 cumulative IPC: 1.81862 (Simulation time: 0 hr 16 min 48 sec) 
Heartbeat CPU 0 instructions: 4000000 cycles: 2370621 heartbeat IPC: 1.68765 cumulative IPC: 1.68732 (Simulation time: 0 hr 16 min 50 sec) 
Heartbeat CPU 0 instructions: 5000000 cycles: 2425411 heartbeat IPC: 2.01139 cumulative IPC: 2.06151 (Simulation time: 0 hr 16 min 52 sec) 

Warmup complete CPU 0 instructions: 5000004 cycles: 2425412 (Simulation time: 0 hr 16 min 52 sec) 

Heartbeat CPU 0 instructions: 4000000 cycles: 2530681 heartbeat IPC: 1.58182 cumulative IPC: 1.5806 (Simulation time: 0 hr 17 min 0 sec) 
Heartbeat CPU 0 instructions: 5000001 cycles: 1916947 heartbeat IPC: 2.60828 cumulative IPC: 2.60831 (Simulation time: 0 hr 16 min 59 sec) 

Warmup complete CPU 0 instructions: 5000001 cycles: 1916947 (Simulation time: 0 hr 16 min 59 sec) 

Heartbeat CPU 0 instructions: 5000001 cycles: 2171590 heartbeat IPC: 2.22713 cumulative IPC: 2.30246 (Simulation time: 0 hr 17 min 2 sec) 

Warmup complete CPU 0 instructions: 5000001 cycles: 2171590 (Simulation time: 0 hr 17 min 2 sec) 

Heartbeat CPU 0 instructions: 5000000 cycles: 2651055 heartbeat IPC: 1.88114 cumulative IPC: 1.88604 (Simulation time: 0 hr 17 min 4 sec) 

Warmup complete CPU 0 instructions: 5000001 cycles: 2651058 (Simulation time: 0 hr 17 min 4 sec) 

Heartbeat CPU 0 instructions: 5000001 cycles: 2582394 heartbeat IPC: 1.93078 cumulative IPC: 1.93619 (Simulation time: 0 hr 17 min 3 sec) 

Warmup complete CPU 0 instructions: 5000001 cycles: 2582394 (Simulation time: 0 hr 17 min 3 sec) 

Heartbeat CPU 0 instructions: 4000000 cycles: 2006624 heartbeat IPC: 2.02281 cumulative IPC: 1.9934 (Simulation time: 0 hr 17 min 17 sec) 
Heartbeat CPU 0 instructions: 4000000 cycles: 2452455 heartbeat IPC: 1.66435 cumulative IPC: 1.63102 (Simulation time: 0 hr 17 min 19 sec) 
Heartbeat CPU 0 instructions: 4000000 cycles: 3848632 heartbeat IPC: 1.03869 cumulative IPC: 1.03933 (Simulation time: 0 hr 17 min 21 sec) 
Heartbeat CPU 0 instructions: 5000000 cycles: 2346967 heartbeat IPC: 2.21653 cumulative IPC: 2.13041 (Simulation time: 0 hr 17 min 25 sec) 

Warmup complete CPU 0 instructions: 5000003 cycles: 2346968 (Simulation time: 0 hr 17 min 25 sec) 

Heartbeat CPU 0 instructions: 4000000 cycles: 1983362 heartbeat IPC: 2.02028 cumulative IPC: 2.01678 (Simulation time: 0 hr 17 min 33 sec) 
Heartbeat CPU 0 instructions: 6000000 cycles: 2905684 heartbeat IPC: 1.15159 cumulative IPC: 1.15159 (Simulation time: 0 hr 17 min 36 sec) 
Heartbeat CPU 0 instructions: 5000003 cycles: 2884306 heartbeat IPC: 1.72934 cumulative IPC: 1.73352 (Simulation time: 0 hr 17 min 46 sec) 

Warmup complete CPU 0 instructions: 5000003 cycles: 2884306 (Simulation time: 0 hr 17 min 46 sec) 

Heartbeat CPU 0 instructions: 7000000 cycles: 2988311 heartbeat IPC: 1.82457 cumulative IPC: 1.77281 (Simulation time: 0 hr 17 min 54 sec) 
Heartbeat CPU 0 instructions: 4000000 cycles: 2624479 heartbeat IPC: 1.47607 cumulative IPC: 1.52411 (Simulation time: 0 hr 17 min 59 sec) 
Heartbeat CPU 0 instructions: 5000002 cycles: 1962094 heartbeat IPC: 2.55456 cumulative IPC: 2.5483 (Simulation time: 0 hr 18 min 6 sec) 

Warmup complete CPU 0 instructions: 5000002 cycles: 1962094 (Simulation time: 0 hr 18 min 6 sec) 

Heartbeat CPU 0 instructions: 5000000 cycles: 1987091 heartbeat IPC: 2.82646 cumulative IPC: 2.51624 (Simulation time: 0 hr 18 min 7 sec) 

Warmup complete CPU 0 instructions: 5000004 cycles: 1987092 (Simulation time: 0 hr 18 min 7 sec) 

Heartbeat CPU 0 instructions: 5000001 cycles: 2666043 heartbeat IPC: 1.87747 cumulative IPC: 1.87544 (Simulation time: 0 hr 18 min 40 sec) 

Warmup complete CPU 0 instructions: 5000001 cycles: 2666043 (Simulation time: 0 hr 18 min 40 sec) 

Heartbeat CPU 0 instructions: 5000000 cycles: 2995748 heartbeat IPC: 1.668 cumulative IPC: 1.66903 (Simulation time: 0 hr 18 min 43 sec) 

Warmup complete CPU 0 instructions: 5000001 cycles: 2995749 (Simulation time: 0 hr 18 min 43 sec) 

Heartbeat CPU 0 instructions: 7000002 cycles: 8035164 heartbeat IPC: 0.310925 cumulative IPC: 0.31043 (Simulation time: 0 hr 18 min 47 sec) 
Heartbeat CPU 0 instructions: 5000003 cycles: 2548012 heartbeat IPC: 1.96457 cumulative IPC: 1.96232 (Simulation time: 0 hr 18 min 59 sec) 

Warmup complete CPU 0 instructions: 5000003 cycles: 2548012 (Simulation time: 0 hr 18 min 59 sec) 

Heartbeat CPU 0 instructions: 7000001 cycles: 5848132 heartbeat IPC: 0.457893 cumulative IPC: 0.478302 (Simulation time: 0 hr 18 min 59 sec) 
Heartbeat CPU 0 instructions: 6000001 cycles: 3243967 heartbeat IPC: 1.08521 cumulative IPC: 1.08521 (Simulation time: 0 hr 18 min 59 sec) 
Heartbeat CPU 0 instructions: 5000000 cycles: 2964991 heartbeat IPC: 1.68649 cumulative IPC: 1.68635 (Simulation time: 0 hr 19 min 4 sec) 

Warmup complete CPU 0 instructions: 5000004 cycles: 2964992 (Simulation time: 0 hr 19 min 4 sec) 

Heartbeat CPU 0 instructions: 4000000 cycles: 2307197 heartbeat IPC: 1.73452 cumulative IPC: 1.73371 (Simulation time: 0 hr 19 min 9 sec) 
Heartbeat CPU 0 instructions: 5000001 cycles: 2975033 heartbeat IPC: 1.68131 cumulative IPC: 1.68065 (Simulation time: 0 hr 19 min 10 sec) 

Warmup complete CPU 0 instructions: 5000001 cycles: 2975033 (Simulation time: 0 hr 19 min 10 sec) 

Heartbeat CPU 0 instructions: 7000001 cycles: 7646968 heartbeat IPC: 0.333307 cumulative IPC: 0.329481 (Simulation time: 0 hr 19 min 12 sec) 
Heartbeat CPU 0 instructions: 6000002 cycles: 3131508 heartbeat IPC: 0.973349 cumulative IPC: 0.973349 (Simulation time: 0 hr 19 min 15 sec) 
Heartbeat CPU 0 instructions: 6000000 cycles: 3438294 heartbeat IPC: 1.15304 cumulative IPC: 1.15304 (Simulation time: 0 hr 19 min 15 sec) 
Heartbeat CPU 0 instructions: 6000002 cycles: 5709403 heartbeat IPC: 0.351668 cumulative IPC: 0.351668 (Simulation time: 0 hr 19 min 19 sec) 
Heartbeat CPU 0 instructions: 7000001 cycles: 3552712 heartbeat IPC: 2.09629 cumulative IPC: 2.10386 (Simulation time: 0 hr 19 min 22 sec) 
Heartbeat CPU 0 instructions: 6000000 cycles: 5750559 heartbeat IPC: 0.349969 cumulative IPC: 0.349969 (Simulation time: 0 hr 19 min 24 sec) 
Heartbeat CPU 0 instructions: 6000002 cycles: 3555638 heartbeat IPC: 0.602981 cumulative IPC: 0.602981 (Simulation time: 0 hr 19 min 35 sec) 
Heartbeat CPU 0 instructions: 6000000 cycles: 3749096 heartbeat IPC: 0.596161 cumulative IPC: 0.596161 (Simulation time: 0 hr 19 min 36 sec) 
Heartbeat CPU 0 instructions: 5000000 cycles: 2476677 heartbeat IPC: 2.07176 cumulative IPC: 2.01883 (Simulation time: 0 hr 19 min 42 sec) 

Warmup complete CPU 0 instructions: 5000004 cycles: 2476678 (Simulation time: 0 hr 19 min 43 sec) 

Heartbeat CPU 0 instructions: 6000000 cycles: 4586260 heartbeat IPC: 0.359356 cumulative IPC: 0.359355 (Simulation time: 0 hr 19 min 49 sec) 
Heartbeat CPU 0 instructions: 5000002 cycles: 3062663 heartbeat IPC: 1.7838 cumulative IPC: 1.63257 (Simulation time: 0 hr 19 min 49 sec) 

Warmup complete CPU 0 instructions: 5000002 cycles: 3062663 (Simulation time: 0 hr 19 min 49 sec) 

Heartbeat CPU 0 instructions: 6000000 cycles: 3557675 heartbeat IPC: 0.723179 cumulative IPC: 0.723179 (Simulation time: 0 hr 19 min 52 sec) 
Heartbeat CPU 0 instructions: 5000001 cycles: 3158592 heartbeat IPC: 1.58794 cumulative IPC: 1.58298 (Simulation time: 0 hr 19 min 56 sec) 

Warmup complete CPU 0 instructions: 5000001 cycles: 3158592 (Simulation time: 0 hr 19 min 56 sec) 

Heartbeat CPU 0 instructions: 6000000 cycles: 4825152 heartbeat IPC: 0.358842 cumulative IPC: 0.358842 (Simulation time: 0 hr 19 min 56 sec) 
Heartbeat CPU 0 instructions: 5000002 cycles: 2691200 heartbeat IPC: 2.09095 cumulative IPC: 1.85791 (Simulation time: 0 hr 20 min 1 sec) 

Warmup complete CPU 0 instructions: 5000002 cycles: 2691200 (Simulation time: 0 hr 20 min 1 sec) 

Heartbeat CPU 0 instructions: 6000001 cycles: 3899925 heartbeat IPC: 0.67819 cumulative IPC: 0.678188 (Simulation time: 0 hr 20 min 8 sec) 
Heartbeat CPU 0 instructions: 5000001 cycles: 3085110 heartbeat IPC: 1.70135 cumulative IPC: 1.62069 (Simulation time: 0 hr 20 min 20 sec) 

Warmup complete CPU 0 instructions: 5000001 cycles: 3085110 (Simulation time: 0 hr 20 min 20 sec) 

Heartbeat CPU 0 instructions: 6000000 cycles: 3507343 heartbeat IPC: 0.741934 cumulative IPC: 0.741934 (Simulation time: 0 hr 20 min 24 sec) 
Heartbeat CPU 0 instructions: 5000000 cycles: 3123523 heartbeat IPC: 1.46972 cumulative IPC: 1.60076 (Simulation time: 0 hr 20 min 26 sec) 

Warmup complete CPU 0 instructions: 5000004 cycles: 3123524 (Simulation time: 0 hr 20 min 26 sec) 

Heartbeat CPU 0 instructions: 6000001 cycles: 2984440 heartbeat IPC: 1.5687 cumulative IPC: 1.56869 (Simulation time: 0 hr 20 min 29 sec) 
Heartbeat CPU 0 instructions: 6000002 cycles: 3669820 heartbeat IPC: 0.58518 cumulative IPC: 0.585178 (Simulation time: 0 hr 20 min 30 sec) 
Heartbeat CPU 0 instructions: 6000000 cycles: 3802584 heartbeat IPC: 0.561714 cumulative IPC: 0.561714 (Simulation time: 0 hr 20 min 32 sec) 
Heartbeat CPU 0 instructions: 8000000 cycles: 3535767 heartbeat IPC: 1.82663 cumulative IPC: 1.79039 (Simulation time: 0 hr 20 min 43 sec) 
Heartbeat CPU 0 instructions: 7000002 cycles: 3778956 heartbeat IPC: 1.14512 cumulative IPC: 1.14835 (Simulation time: 0 hr 20 min 56 sec) 
Heartbeat CPU 0 instructions: 5000002 cycles: 2957045 heartbeat IPC: 1.73745 cumulative IPC: 1.69088 (Simulation time: 0 hr 21 min 2 sec) 

Warmup complete CPU 0 instructions: 5000002 cycles: 2957045 (Simulation time: 0 hr 21 min 2 sec) 

Heartbeat CPU 0 instructions: 5000002 cycles: 4738258 heartbeat IPC: 1.12407 cumulative IPC: 1.05524 (Simulation time: 0 hr 21 min 12 sec) 

Warmup complete CPU 0 instructions: 5000002 cycles: 4738258 (Simulation time: 0 hr 21 min 12 sec) 

Heartbeat CPU 0 instructions: 5000000 cycles: 3014423 heartbeat IPC: 1.43893 cumulative IPC: 1.65869 (Simulation time: 0 hr 21 min 15 sec) 

Warmup complete CPU 0 instructions: 5000004 cycles: 3014425 (Simulation time: 0 hr 21 min 15 sec) 

Heartbeat CPU 0 instructions: 5000000 cycles: 2963700 heartbeat IPC: 1.68612 cumulative IPC: 1.68708 (Simulation time: 0 hr 21 min 16 sec) 

Warmup complete CPU 0 instructions: 5000004 cycles: 2963701 (Simulation time: 0 hr 21 min 16 sec) 

Heartbeat CPU 0 instructions: 6000000 cycles: 3863644 heartbeat IPC: 0.51369 cumulative IPC: 0.51369 (Simulation time: 0 hr 21 min 16 sec) 
Heartbeat CPU 0 instructions: 6000000 cycles: 4821906 heartbeat IPC: 0.460649 cumulative IPC: 0.460649 (Simulation time: 0 hr 21 min 18 sec) 
Heartbeat CPU 0 instructions: 6000002 cycles: 4057878 heartbeat IPC: 0.45607 cumulative IPC: 0.45607 (Simulation time: 0 hr 21 min 24 sec) 
Heartbeat CPU 0 instructions: 5000002 cycles: 2749347 heartbeat IPC: 1.81857 cumulative IPC: 1.81861 (Simulation time: 0 hr 21 min 28 sec) 

Warmup complete CPU 0 instructions: 5000002 cycles: 2749347 (Simulation time: 0 hr 21 min 28 sec) 

Heartbeat CPU 0 instructions: 5000003 cycles: 3163095 heartbeat IPC: 1.58125 cumulative IPC: 1.58073 (Simulation time: 0 hr 21 min 37 sec) 

Warmup complete CPU 0 instructions: 5000003 cycles: 3163095 (Simulation time: 0 hr 21 min 37 sec) 

Heartbeat CPU 0 instructions: 5000002 cycles: 2476928 heartbeat IPC: 2.02608 cumulative IPC: 2.01863 (Simulation time: 0 hr 21 min 36 sec) 

Warmup complete CPU 0 instructions: 5000002 cycles: 2476928 (Simulation time: 0 hr 21 min 36 sec) 

Heartbeat CPU 0 instructions: 5000000 cycles: 3058482 heartbeat IPC: 1.65009 cumulative IPC: 1.6348 (Simulation time: 0 hr 21 min 38 sec) 

Warmup complete CPU 0 instructions: 5000002 cycles: 3058483 (Simulation time: 0 hr 21 min 38 sec) 

Heartbeat CPU 0 instructions: 5000002 cycles: 2497528 heartbeat IPC: 2.03706 cumulative IPC: 2.00198 (Simulation time: 0 hr 21 min 40 sec) 

Warmup complete CPU 0 instructions: 5000002 cycles: 2497528 (Simulation time: 0 hr 21 min 40 sec) 

Heartbeat CPU 0 instructions: 6000003 cycles: 4216266 heartbeat IPC: 0.612044 cumulative IPC: 0.612044 (Simulation time: 0 hr 21 min 43 sec) 
Heartbeat CPU 0 instructions: 7000003 cycles: 4155251 heartbeat IPC: 0.976809 cumulative IPC: 0.975076 (Simulation time: 0 hr 22 min 13 sec) 
Heartbeat CPU 0 instructions: 8000000 cycles: 4026025 heartbeat IPC: 2.11276 cumulative IPC: 2.10682 (Simulation time: 0 hr 22 min 24 sec) 
Heartbeat CPU 0 instructions: 6000000 cycles: 6750982 heartbeat IPC: 0.218369 cumulative IPC: 0.218369 (Simulation time: 0 hr 22 min 23 sec) 
Heartbeat CPU 0 instructions: 8000000 cycles: 11172781 heartbeat IPC: 0.318713 cumulative IPC: 0.313143 (Simulation time: 0 hr 22 min 28 sec) 
Heartbeat CPU 0 instructions: 5000002 cycles: 3302114 heartbeat IPC: 1.47572 cumulative IPC: 1.51418 (Simulation time: 0 hr 22 min 35 sec) 

Warmup complete CPU 0 instructions: 5000002 cycles: 3302114 (Simulation time: 0 hr 22 min 35 sec) 

Heartbeat CPU 0 instructions: 7000001 cycles: 4166477 heartbeat IPC: 1.084 cumulative IPC: 1.08461 (Simulation time: 0 hr 22 min 37 sec) 
Heartbeat CPU 0 instructions: 7000000 cycles: 4389880 heartbeat IPC: 1.05088 cumulative IPC: 1.09959 (Simulation time: 0 hr 22 min 52 sec) 
Heartbeat CPU 0 instructions: 7000002 cycles: 4763128 heartbeat IPC: 0.829565 cumulative IPC: 0.772728 (Simulation time: 0 hr 22 min 54 sec) 
Heartbeat CPU 0 instructions: 8000000 cycles: 8138946 heartbeat IPC: 0.436526 cumulative IPC: 0.463516 (Simulation time: 0 hr 22 min 56 sec) 
Heartbeat CPU 0 instructions: 6000001 cycles: 4315889 heartbeat IPC: 0.606117 cumulative IPC: 0.606117 (Simulation time: 0 hr 23 min 1 sec) 
Heartbeat CPU 0 instructions: 7000000 cycles: 7710499 heartbeat IPC: 0.320078 cumulative IPC: 0.338581 (Simulation time: 0 hr 23 min 6 sec) 
Heartbeat CPU 0 instructions: 6000003 cycles: 5270109 heartbeat IPC: 0.419146 cumulative IPC: 0.419146 (Simulation time: 0 hr 23 min 7 sec) 
Heartbeat CPU 0 instructions: 8000000 cycles: 10675965 heartbeat IPC: 0.330142 cumulative IPC: 0.329701 (Simulation time: 0 hr 23 min 9 sec) 
Heartbeat CPU 0 instructions: 7000000 cycles: 8706980 heartbeat IPC: 0.333602 cumulative IPC: 0.342397 (Simulation time: 0 hr 23 min 8 sec) 
Heartbeat CPU 0 instructions: 7000002 cycles: 7445321 heartbeat IPC: 0.381656 cumulative IPC: 0.369897 (Simulation time: 0 hr 23 min 12 sec) 
Heartbeat CPU 0 instructions: 7000001 cycles: 5480261 heartbeat IPC: 0.632777 cumulative IPC: 0.654696 (Simulation time: 0 hr 23 min 13 sec) 
Heartbeat CPU 0 instructions: 6000001 cycles: 4989627 heartbeat IPC: 0.493916 cumulative IPC: 0.493915 (Simulation time: 0 hr 23 min 23 sec) 
Heartbeat CPU 0 instructions: 7000000 cycles: 9433486 heartbeat IPC: 0.271523 cumulative IPC: 0.305795 (Simulation time: 0 hr 23 min 24 sec) 
Heartbeat CPU 0 instructions: 9000000 cycles: 4082145 heartbeat IPC: 1.83023 cumulative IPC: 1.80019 (Simulation time: 0 hr 23 min 25 sec) 
Heartbeat CPU 0 instructions: 7000000 cycles: 3542426 heartbeat IPC: 1.79216 cumulative IPC: 1.673 (Simulation time: 0 hr 23 min 26 sec) 
Heartbeat CPU 0 instructions: 6000001 cycles: 5872447 heartbeat IPC: 0.36848 cumulative IPC: 0.36848 (Simulation time: 0 hr 23 min 35 sec) 
Heartbeat CPU 0 instructions: 6000000 cycles: 4587180 heartbeat IPC: 0.384602 cumulative IPC: 0.384601 (Simulation time: 0 hr 23 min 35 sec) 
Heartbeat CPU 0 instructions: 6000002 cycles: 3642514 heartbeat IPC: 0.595089 cumulative IPC: 0.595089 (Simulation time: 0 hr 23 min 37 sec) 
Heartbeat CPU 0 instructions: 6000002 cycles: 5096258 heartbeat IPC: 0.471426 cumulative IPC: 0.471426 (Simulation time: 0 hr 23 min 42 sec) 
Heartbeat CPU 0 instructions: 7000002 cycles: 5027820 heartbeat IPC: 0.679264 cumulative IPC: 0.638853 (Simulation time: 0 hr 23 min 43 sec) 
Heartbeat CPU 0 instructions: 6000001 cycles: 4812623 heartbeat IPC: 0.550396 cumulative IPC: 0.550396 (Simulation time: 0 hr 23 min 43 sec) 
Heartbeat CPU 0 instructions: 6000000 cycles: 3914634 heartbeat IPC: 0.731729 cumulative IPC: 0.731729 (Simulation time: 0 hr 23 min 58 sec) 
Heartbeat CPU 0 instructions: 5000000 cycles: 2884156 heartbeat IPC: 1.73323 cumulative IPC: 1.73361 (Simulation time: 0 hr 24 min 24 sec) 

Warmup complete CPU 0 instructions: 5000004 cycles: 2884157 (Simulation time: 0 hr 24 min 24 sec) 

Heartbeat CPU 0 instructions: 7000001 cycles: 8287977 heartbeat IPC: 0.220319 cumulative IPC: 0.321736 (Simulation time: 0 hr 24 min 24 sec) 
Heartbeat CPU 0 instructions: 8000000 cycles: 4648785 heartbeat IPC: 1.14965 cumulative IPC: 1.14878 (Simulation time: 0 hr 24 min 29 sec) 
Heartbeat CPU 0 instructions: 6000003 cycles: 5728197 heartbeat IPC: 0.378346 cumulative IPC: 0.378346 (Simulation time: 0 hr 24 min 34 sec) 
Heartbeat CPU 0 instructions: 7000001 cycles: 5489393 heartbeat IPC: 0.592836 cumulative IPC: 0.576856 (Simulation time: 0 hr 24 min 46 sec) 
Heartbeat CPU 0 instructions: 7000000 cycles: 5313917 heartbeat IPC: 0.608235 cumulative IPC: 0.596484 (Simulation time: 0 hr 24 min 57 sec) 
Heartbeat CPU 0 instructions: 6000000 cycles: 5118677 heartbeat IPC: 0.486377 cumulative IPC: 0.486377 (Simulation time: 0 hr 25 min 3 sec) 
Heartbeat CPU 0 instructions: 6000003 cycles: 5431628 heartbeat IPC: 0.433257 cumulative IPC: 0.433256 (Simulation time: 0 hr 25 min 4 sec) 
Heartbeat CPU 0 instructions: 7000002 cycles: 5807050 heartbeat IPC: 0.514562 cumulative IPC: 0.514125 (Simulation time: 0 hr 25 min 9 sec) 
Heartbeat CPU 0 instructions: 7000000 cycles: 4855253 heartbeat IPC: 0.741889 cumulative IPC: 0.741912 (Simulation time: 0 hr 25 min 17 sec) 
Heartbeat CPU 0 instructions: 8000000 cycles: 5218976 heartbeat IPC: 0.94009 cumulative IPC: 0.963128 (Simulation time: 0 hr 25 min 24 sec) 
Heartbeat CPU 0 instructions: 7000000 cycles: 8476276 heartbeat IPC: 0.579611 cumulative IPC: 0.317224 (Simulation time: 0 hr 25 min 26 sec) 
Heartbeat CPU 0 instructions: 6000000 cycles: 6131522 heartbeat IPC: 0.717738 cumulative IPC: 0.717738 (Simulation time: 0 hr 25 min 28 sec) 
Heartbeat CPU 0 instructions: 9000001 cycles: 4502728 heartbeat IPC: 2.09774 cumulative IPC: 2.10454 (Simulation time: 0 hr 25 min 29 sec) 
Heartbeat CPU 0 instructions: 7000001 cycles: 7002288 heartbeat IPC: 0.458636 cumulative IPC: 0.45964 (Simulation time: 0 hr 25 min 39 sec) 
Heartbeat CPU 0 instructions: 6000002 cycles: 4806753 heartbeat IPC: 0.557934 cumulative IPC: 0.557932 (Simulation time: 0 hr 25 min 49 sec) 
Heartbeat CPU 0 instructions: 8000000 cycles: 6703492 heartbeat IPC: 0.817506 cumulative IPC: 0.701248 (Simulation time: 0 hr 26 min 4 sec) 
Heartbeat CPU 0 instructions: 6000002 cycles: 5078266 heartbeat IPC: 0.472911 cumulative IPC: 0.47291 (Simulation time: 0 hr 26 min 5 sec) 
Heartbeat CPU 0 instructions: 8000000 cycles: 5870337 heartbeat IPC: 0.90317 cumulative IPC: 0.81181 (Simulation time: 0 hr 26 min 5 sec) 
Heartbeat CPU 0 instructions: 8000000 cycles: 5089105 heartbeat IPC: 1.08386 cumulative IPC: 1.08436 (Simulation time: 0 hr 26 min 10 sec) 
Heartbeat CPU 0 instructions: 6000003 cycles: 9660576 heartbeat IPC: 0.139201 cumulative IPC: 0.1392 (Simulation time: 0 hr 26 min 12 sec) 
Heartbeat CPU 0 instructions: 7000001 cycles: 5581945 heartbeat IPC: 0.656138 cumulative IPC: 0.53811 (Simulation time: 0 hr 26 min 14 sec) 
Heartbeat CPU 0 instructions: 10000002 cycles: 5020350 heartbeat IPC: 1.06587 cumulative IPC: 1.58218 (Simulation time: 0 hr 26 min 18 sec) 
Heartbeat CPU 0 instructions: 7000000 cycles: 5841926 heartbeat IPC: 0.615133 cumulative IPC: 0.613585 (Simulation time: 0 hr 26 min 18 sec) 
Heartbeat CPU 0 instructions: 9000000 cycles: 13177647 heartbeat IPC: 0.498786 cumulative IPC: 0.345269 (Simulation time: 0 hr 26 min 22 sec) 
Heartbeat CPU 0 instructions: 8000000 cycles: 4095056 heartbeat IPC: 1.80953 cumulative IPC: 1.71616 (Simulation time: 0 hr 26 min 24 sec) 
Heartbeat CPU 0 instructions: 8000000 cycles: 10512706 heartbeat IPC: 0.356862 cumulative IPC: 0.344463 (Simulation time: 0 hr 26 min 24 sec) 
Heartbeat CPU 0 instructions: 8000000 cycles: 10479808 heartbeat IPC: 0.955729 cumulative IPC: 0.395432 (Simulation time: 0 hr 26 min 24 sec) 
Heartbeat CPU 0 instructions: 8000000 cycles: 5410792 heartbeat IPC: 0.979516 cumulative IPC: 1.05642 (Simulation time: 0 hr 26 min 29 sec) 
Heartbeat CPU 0 instructions: 6000003 cycles: 6994723 heartbeat IPC: 0.232368 cumulative IPC: 0.232368 (Simulation time: 0 hr 26 min 30 sec) 
Heartbeat CPU 0 instructions: 9000001 cycles: 10439022 heartbeat IPC: 0.434769 cumulative IPC: 0.455978 (Simulation time: 0 hr 26 min 41 sec) 
Heartbeat CPU 0 instructions: 6000000 cycles: 5093017 heartbeat IPC: 0.491513 cumulative IPC: 0.491512 (Simulation time: 0 hr 26 min 53 sec) 
Heartbeat CPU 0 instructions: 6000001 cycles: 4692699 heartbeat IPC: 0.514574 cumulative IPC: 0.514574 (Simulation time: 0 hr 26 min 53 sec) 
Heartbeat CPU 0 instructions: 8000000 cycles: 12127547 heartbeat IPC: 0.292349 cumulative IPC: 0.323913 (Simulation time: 0 hr 26 min 56 sec) 
Heartbeat CPU 0 instructions: 9000002 cycles: 13728120 heartbeat IPC: 0.327638 cumulative IPC: 0.329183 (Simulation time: 0 hr 27 min 5 sec) 
Heartbeat CPU 0 instructions: 6000003 cycles: 7594568 heartbeat IPC: 0.215633 cumulative IPC: 0.215633 (Simulation time: 0 hr 27 min 21 sec) 
Heartbeat CPU 0 instructions: 8000000 cycles: 6269187 heartbeat IPC: 0.805562 cumulative IPC: 0.686188 (Simulation time: 0 hr 27 min 24 sec) 
Heartbeat CPU 0 instructions: 7000000 cycles: 5948256 heartbeat IPC: 0.612607 cumulative IPC: 0.609345 (Simulation time: 0 hr 27 min 40 sec) 
Heartbeat CPU 0 instructions: 8000000 cycles: 11390235 heartbeat IPC: 0.25349 cumulative IPC: 0.320793 (Simulation time: 0 hr 27 min 40 sec) 
Heartbeat CPU 0 instructions: 7000002 cycles: 8926221 heartbeat IPC: 0.327464 cumulative IPC: 0.346763 (Simulation time: 0 hr 27 min 41 sec) 
Heartbeat CPU 0 instructions: 6000002 cycles: 6226966 heartbeat IPC: 0.326384 cumulative IPC: 0.326384 (Simulation time: 0 hr 27 min 49 sec) 
Heartbeat CPU 0 instructions: 7000000 cycles: 7086124 heartbeat IPC: 0.476986 cumulative IPC: 0.485303 (Simulation time: 0 hr 27 min 50 sec) 
Heartbeat CPU 0 instructions: 9000000 cycles: 5522697 heartbeat IPC: 1.14428 cumulative IPC: 1.14765 (Simulation time: 0 hr 27 min 54 sec) 
Heartbeat CPU 0 instructions: 7000000 cycles: 7226538 heartbeat IPC: 0.469421 cumulative IPC: 0.470421 (Simulation time: 0 hr 28 min 7 sec) 
Heartbeat CPU 0 instructions: 6000001 cycles: 14592838 heartbeat IPC: 0.082536 cumulative IPC: 0.082536 (Simulation time: 0 hr 28 min 8 sec) 
Heartbeat CPU 0 instructions: 6000000 cycles: 13616929 heartbeat IPC: 0.0899327 cumulative IPC: 0.0899327 (Simulation time: 0 hr 28 min 16 sec) 
Heartbeat CPU 0 instructions: 9000000 cycles: 6244656 heartbeat IPC: 0.974963 cumulative IPC: 0.96606 (Simulation time: 0 hr 28 min 19 sec) 
Heartbeat CPU 0 instructions: 7000000 cycles: 7691774 heartbeat IPC: 0.412938 cumulative IPC: 0.416019 (Simulation time: 0 hr 28 min 21 sec) 
Heartbeat CPU 0 instructions: 7000001 cycles: 6602001 heartbeat IPC: 0.558853 cumulative IPC: 0.554592 (Simulation time: 0 hr 28 min 33 sec) 
Heartbeat CPU 0 instructions: 8000000 cycles: 7062125 heartbeat IPC: 0.635836 cumulative IPC: 0.595261 (Simulation time: 0 hr 28 min 35 sec) 
Heartbeat CPU 0 instructions: 10000001 cycles: 4976169 heartbeat IPC: 2.1122 cumulative IPC: 2.10607 (Simulation time: 0 hr 28 min 37 sec) 
Heartbeat CPU 0 instructions: 7000000 cycles: 8384125 heartbeat IPC: 0.376515 cumulative IPC: 0.377428 (Simulation time: 0 hr 28 min 37 sec) 
Heartbeat CPU 0 instructions: 7000001 cycles: 5305651 heartbeat IPC: 0.718899 cumulative IPC: 0.725257 (Simulation time: 0 hr 28 min 49 sec) 
Heartbeat CPU 0 instructions: 8000000 cycles: 12353596 heartbeat IPC: 0.245965 cumulative IPC: 0.291775 (Simulation time: 0 hr 28 min 51 sec) 
Heartbeat CPU 0 instructions: 6000001 cycles: 12973364 heartbeat IPC: 0.103399 cumulative IPC: 0.103399 (Simulation time: 0 hr 28 min 53 sec) 
Heartbeat CPU 0 instructions: 11000001 cycles: 5597006 heartbeat IPC: 1.73413 cumulative IPC: 1.60563 (Simulation time: 0 hr 28 min 54 sec) 
Heartbeat CPU 0 instructions: 7000000 cycles: 7121339 heartbeat IPC: 0.394608 cumulative IPC: 0.38954 (Simulation time: 0 hr 28 min 58 sec) 
Heartbeat CPU 0 instructions: 9000003 cycles: 8000604 heartbeat IPC: 0.770946 cumulative IPC: 0.717464 (Simulation time: 0 hr 29 min 0 sec) 
Heartbeat CPU 0 instructions: 8000000 cycles: 11345938 heartbeat IPC: 0.348473 cumulative IPC: 0.326999 (Simulation time: 0 hr 28 min 59 sec) 
Heartbeat CPU 0 instructions: 7000003 cycles: 5304412 heartbeat IPC: 0.601722 cumulative IPC: 0.598387 (Simulation time: 0 hr 29 min 11 sec) 
Heartbeat CPU 0 instructions: 9000000 cycles: 7183520 heartbeat IPC: 0.761508 cumulative IPC: 0.798622 (Simulation time: 0 hr 29 min 18 sec) 
Heartbeat CPU 0 instructions: 8000000 cycles: 6813695 heartbeat IPC: 0.666765 cumulative IPC: 0.618205 (Simulation time: 0 hr 29 min 20 sec) 
Heartbeat CPU 0 instructions: 9000000 cycles: 4658335 heartbeat IPC: 1.77532 cumulative IPC: 1.73058 (Simulation time: 0 hr 29 min 23 sec) 
Heartbeat CPU 0 instructions: 8000000 cycles: 7750449 heartbeat IPC: 0.514561 cumulative IPC: 0.514271 (Simulation time: 0 hr 29 min 22 sec) 
Heartbeat CPU 0 instructions: 9000001 cycles: 11527366 heartbeat IPC: 0.954602 cumulative IPC: 0.463274 (Simulation time: 0 hr 29 min 28 sec) 
Heartbeat CPU 0 instructions: 9000000 cycles: 13328336 heartbeat IPC: 0.35516 cumulative IPC: 0.347076 (Simulation time: 0 hr 29 min 38 sec) 
Heartbeat CPU 0 instructions: 8000000 cycles: 6267515 heartbeat IPC: 0.708084 cumulative IPC: 0.730282 (Simulation time: 0 hr 29 min 39 sec) 
Heartbeat CPU 0 instructions: 7000002 cycles: 7695642 heartbeat IPC: 0.441693 cumulative IPC: 0.437434 (Simulation time: 0 hr 29 min 39 sec) 
Heartbeat CPU 0 instructions: 7000000 cycles: 7497933 heartbeat IPC: 0.731844 cumulative IPC: 0.724722 (Simulation time: 0 hr 29 min 42 sec) 
Heartbeat CPU 0 instructions: 9000001 cycles: 6030069 heartbeat IPC: 1.06274 cumulative IPC: 1.07887 (Simulation time: 0 hr 29 min 42 sec) 
Heartbeat CPU 0 instructions: 7000002 cycles: 7061029 heartbeat IPC: 0.514841 cumulative IPC: 0.500204 (Simulation time: 0 hr 29 min 53 sec) 
Heartbeat CPU 0 instructions: 8000000 cycles: 9153369 heartbeat IPC: 0.464882 cumulative IPC: 0.461374 (Simulation time: 0 hr 29 min 55 sec) 
Heartbeat CPU 0 instructions: 9000000 cycles: 6354386 heartbeat IPC: 1.05978 cumulative IPC: 1.05726 (Simulation time: 0 hr 30 min 0 sec) 
Heartbeat CPU 0 instructions: 10000002 cycles: 15175589 heartbeat IPC: 0.500516 cumulative IPC: 0.368105 (Simulation time: 0 hr 30 min 15 sec) 
Heartbeat CPU 0 instructions: 10000000 cycles: 12734975 heartbeat IPC: 0.435549 cumulative IPC: 0.451741 (Simulation time: 0 hr 30 min 30 sec) 
Heartbeat CPU 0 instructions: 7000001 cycles: 6625881 heartbeat IPC: 0.549713 cumulative IPC: 0.553792 (Simulation time: 0 hr 30 min 30 sec) 
Heartbeat CPU 0 instructions: 8000000 cycles: 7464681 heartbeat IPC: 0.616236 cumulative IPC: 0.614466 (Simulation time: 0 hr 30 min 40 sec) 
Heartbeat CPU 0 instructions: 7000001 cycles: 7182668 heartbeat IPC: 0.475194 cumulative IPC: 0.474049 (Simulation time: 0 hr 30 min 48 sec) 
Heartbeat CPU 0 instructions: 8000000 cycles: 6772790 heartbeat IPC: 0.839739 cumulative IPC: 0.611302 (Simulation time: 0 hr 30 min 53 sec) 
Heartbeat CPU 0 instructions: 9000001 cycles: 15277858 heartbeat IPC: 0.317429 cumulative IPC: 0.322267 (Simulation time: 0 hr 30 min 54 sec) 
Heartbeat CPU 0 instructions: 9000001 cycles: 7557946 heartbeat IPC: 0.775941 cumulative IPC: 0.706622 (Simulation time: 0 hr 31 min 7 sec) 
Heartbeat CPU 0 instructions: 10000003 cycles: 16689738 heartbeat IPC: 0.337654 cumulative IPC: 0.330843 (Simulation time: 0 hr 31 min 11 sec) 
Heartbeat CPU 0 instructions: 12000000 cycles: 6169699 heartbeat IPC: 1.74613 cumulative IPC: 1.6243 (Simulation time: 0 hr 31 min 29 sec) 
Heartbeat CPU 0 instructions: 6000000 cycles: 5450515 heartbeat IPC: 0.389657 cumulative IPC: 0.389656 (Simulation time: 0 hr 31 min 31 sec) 
Heartbeat CPU 0 instructions: 10000002 cycles: 6395682 heartbeat IPC: 1.1455 cumulative IPC: 1.14722 (Simulation time: 0 hr 31 min 35 sec) 
Heartbeat CPU 0 instructions: 10000000 cycles: 7102504 heartbeat IPC: 1.16571 cumulative IPC: 1.00032 (Simulation time: 0 hr 31 min 41 sec) 
Heartbeat CPU 0 instructions: 11000002 cycles: 5453066 heartbeat IPC: 2.09689 cumulative IPC: 2.10453 (Simulation time: 0 hr 31 min 44 sec) 
Heartbeat CPU 0 instructions: 9000001 cycles: 14568336 heartbeat IPC: 0.314654 cumulative IPC: 0.319236 (Simulation time: 0 hr 31 min 53 sec) 
Heartbeat CPU 0 instructions: 10000000 cycles: 9320413 heartbeat IPC: 0.757683 cumulative IPC: 0.725163 (Simulation time: 0 hr 32 min 5 sec) 
Heartbeat CPU 0 instructions: 8000000 cycles: 7538108 heartbeat IPC: 0.628989 cumulative IPC: 0.615755 (Simulation time: 0 hr 32 min 15 sec) 
Heartbeat CPU 0 instructions: 10000001 cycles: 8566733 heartbeat IPC: 0.722955 cumulative IPC: 0.782247 (Simulation time: 0 hr 32 min 27 sec) 
Heartbeat CPU 0 instructions: 10000001 cycles: 5218925 heartbeat IPC: 1.78384 cumulative IPC: 1.74097 (Simulation time: 0 hr 32 min 31 sec) 
Heartbeat CPU 0 instructions: 8000000 cycles: 9364229 heartbeat IPC: 0.467794 cumulative IPC: 0.469543 (Simulation time: 0 hr 32 min 32 sec) 
Heartbeat CPU 0 instructions: 8000000 cycles: 11465311 heartbeat IPC: 0.393841 cumulative IPC: 0.361153 (Simulation time: 0 hr 32 min 31 sec) 
Heartbeat CPU 0 instructions: 7000001 cycles: 7062826 heartbeat IPC: 0.507664 cumulative IPC: 0.499457 (Simulation time: 0 hr 32 min 34 sec) 
Heartbeat CPU 0 instructions: 7000000 cycles: 6629745 heartbeat IPC: 0.516249 cumulative IPC: 0.515411 (Simulation time: 0 hr 32 min 34 sec) 
Heartbeat CPU 0 instructions: 10000003 cycles: 12573686 heartbeat IPC: 0.955732 cumulative IPC: 0.516501 (Simulation time: 0 hr 32 min 35 sec) 
Heartbeat CPU 0 instructions: 8000000 cycles: 11040621 heartbeat IPC: 0.376436 cumulative IPC: 0.377097 (Simulation time: 0 hr 32 min 49 sec) 
Heartbeat CPU 0 instructions: 9000003 cycles: 8869806 heartbeat IPC: 0.553197 cumulative IPC: 0.584156 (Simulation time: 0 hr 32 min 52 sec) 
Heartbeat CPU 0 instructions: 7000002 cycles: 11425725 heartbeat IPC: 0.225682 cumulative IPC: 0.228976 (Simulation time: 0 hr 32 min 57 sec) 
Heartbeat CPU 0 instructions: 10000003 cycles: 16294187 heartbeat IPC: 0.337172 cumulative IPC: 0.345049 (Simulation time: 0 hr 33 min 7 sec) 
Heartbeat CPU 0 instructions: 10000002 cycles: 6952225 heartbeat IPC: 1.08442 cumulative IPC: 1.07998 (Simulation time: 0 hr 33 min 14 sec) 
Heartbeat CPU 0 instructions: 8000000 cycles: 8432840 heartbeat IPC: 0.546197 cumulative IPC: 0.551765 (Simulation time: 0 hr 33 min 21 sec) 
Heartbeat CPU 0 instructions: 8000000 cycles: 14401598 heartbeat IPC: 0.136697 cumulative IPC: 0.262315 (Simulation time: 0 hr 33 min 24 sec) 
[...]
LLC TOTAL     ACCESS:    2288599  HIT:     786620  MISS:    1501979
LLC LOAD      ACCESS:    1470872  HIT:     494420  MISS:     976452
LLC RFO       ACCESS:     352037  HIT:      60293  MISS:     291744
LLC PREFETCH  ACCESS:          0  HIT:          0  MISS:          0
LLC WRITEBACK ACCESS:     465690  HIT:     231907  MISS:     233783
Heartbeat CPU 0 instructions: 46000001 cycles: 215984292 heartbeat IPC: 0.272345 cumulative IPC: 0.192224 (Simulation time: 3 hr 15 min 32 sec) 
Heartbeat CPU 0 instructions: 39000000 cycles: 422997113 heartbeat IPC: 0.0820398 cumulative IPC: 0.0808562 (Simulation time: 3 hr 15 min 38 sec) 
Heartbeat CPU 0 instructions: 48000000 cycles: 351580292 heartbeat IPC: 0.103239 cumulative IPC: 0.123465 (Simulation time: 3 hr 15 min 42 sec) 
Heartbeat CPU 0 instructions: 51000002 cycles: 144085870 heartbeat IPC: 0.330488 cumulative IPC: 0.32642 (Simulation time: 3 hr 15 min 45 sec) 
Heartbeat CPU 0 instructions: 49000000 cycles: 187426034 heartbeat IPC: 0.315738 cumulative IPC: 0.238522 (Simulation time: 3 hr 15 min 47 sec) 
Heartbeat CPU 0 instructions: 41000003 cycles: 455461767 heartbeat IPC: 0.0883193 cumulative IPC: 0.0794729 (Simulation time: 3 hr 15 min 48 sec) 
Heartbeat CPU 0 instructions: 47000001 cycles: 219661839 heartbeat IPC: 0.27192 cumulative IPC: 0.193575 (Simulation time: 3 hr 16 min 5 sec) 
Heartbeat CPU 0 instructions: 50000001 cycles: 126013374 heartbeat IPC: 0.265645 cumulative IPC: 0.363331 (Simulation time: 3 hr 16 min 6 sec) 
Heartbeat CPU 0 instructions: 55000003 cycles: 112511059 heartbeat IPC: 0.347316 cumulative IPC: 0.455532 (Simulation time: 3 hr 16 min 6 sec) 
Finished CPU 0 instructions: 50000001 cycles: 109761712 cummulative IPC: 0.455532 (Simulation time: 3 hr 16 min 6 sec) 

ChampSim completed all CPUs

Region of Interest Statistics

CPU 0 cummulative IPC: 0.455532 instructions: 50000001 cycles: 109761712
LLC TOTAL     ACCESS:    1406154  HIT:     220306  MISS:    1185848
LLC LOAD      ACCESS:     944752  HIT:        344  MISS:     944408
LLC RFO       ACCESS:      40208  HIT:          0  MISS:      40208
LLC PREFETCH  ACCESS:          0  HIT:          0  MISS:          0
LLC WRITEBACK ACCESS:     421194  HIT:     219962  MISS:     201232
Heartbeat CPU 0 instructions: 55000001 cycles: 100727933 heartbeat IPC: 0.431995 cumulative IPC: 0.511931 (Simulation time: 3 hr 16 min 10 sec) 
Finished CPU 0 instructions: 50000003 cycles: 97669451 cummulative IPC: 0.511931 (Simulation time: 3 hr 16 min 10 sec) 

ChampSim completed all CPUs

Region of Interest Statistics

CPU 0 cummulative IPC: 0.511931 instructions: 50000003 cycles: 97669451
LLC TOTAL     ACCESS:    1892680  HIT:     736019  MISS:    1156661
LLC LOAD      ACCESS:    1251718  HIT:     488926  MISS:     762792
LLC RFO       ACCESS:     263697  HIT:     104927  MISS:     158770
LLC PREFETCH  ACCESS:          0  HIT:          0  MISS:          0
LLC WRITEBACK ACCESS:     377265  HIT:     142166  MISS:     235099
Heartbeat CPU 0 instructions: 50000000 cycles: 100517084 heartbeat IPC: 0.295186 cumulative IPC: 0.46091 (Simulation time: 3 hr 16 min 14 sec) 
Heartbeat CPU 0 instructions: 42000001 cycles: 344063327 heartbeat IPC: 0.17174 cumulative IPC: 0.108318 (Simulation time: 3 hr 16 min 22 sec) 
Heartbeat CPU 0 instructions: 52000000 cycles: 147098870 heartbeat IPC: 0.331894 cumulative IPC: 0.326535 (Simulation time: 3 hr 16 min 22 sec) 
Heartbeat CPU 0 instructions: 50000001 cycles: 191798677 heartbeat IPC: 0.228695 cumulative IPC: 0.238295 (Simulation time: 3 hr 16 min 23 sec) 
Heartbeat CPU 0 instructions: 42000000 cycles: 464410289 heartbeat IPC: 0.11175 cumulative IPC: 0.0800981 (Simulation time: 3 hr 16 min 29 sec) 
Heartbeat CPU 0 instructions: 49000000 cycles: 358052939 heartbeat IPC: 0.154496 cumulative IPC: 0.124031 (Simulation time: 3 hr 16 min 31 sec) 
Heartbeat CPU 0 instructions: 48000000 cycles: 223318827 heartbeat IPC: 0.273449 cumulative IPC: 0.194899 (Simulation time: 3 hr 16 min 34 sec) 
Heartbeat CPU 0 instructions: 40000000 cycles: 435190704 heartbeat IPC: 0.0820103 cumulative IPC: 0.0808887 (Simulation time: 3 hr 16 min 49 sec) 
Heartbeat CPU 0 instructions: 51000000 cycles: 129765766 heartbeat IPC: 0.266496 cumulative IPC: 0.360484 (Simulation time: 3 hr 16 min 50 sec) 
Heartbeat CPU 0 instructions: 51000003 cycles: 104137767 heartbeat IPC: 0.276192 cumulative IPC: 0.454305 (Simulation time: 3 hr 16 min 52 sec) 
Heartbeat CPU 0 instructions: 51000003 cycles: 195799929 heartbeat IPC: 0.249922 cumulative IPC: 0.238536 (Simulation time: 3 hr 16 min 57 sec) 
Heartbeat CPU 0 instructions: 53000000 cycles: 150201337 heartbeat IPC: 0.322324 cumulative IPC: 0.326446 (Simulation time: 3 hr 16 min 58 sec) 
Heartbeat CPU 0 instructions: 49000000 cycles: 227000871 heartbeat IPC: 0.271588 cumulative IPC: 0.196157 (Simulation time: 3 hr 17 min 2 sec) 
Heartbeat CPU 0 instructions: 43000000 cycles: 349240540 heartbeat IPC: 0.193154 cumulative IPC: 0.109585 (Simulation time: 3 hr 17 min 13 sec) 
Heartbeat CPU 0 instructions: 43000001 cycles: 476192139 heartbeat IPC: 0.0848764 cumulative IPC: 0.080217 (Simulation time: 3 hr 17 min 15 sec) 
Heartbeat CPU 0 instructions: 50000000 cycles: 364667662 heartbeat IPC: 0.151178 cumulative IPC: 0.124528 (Simulation time: 3 hr 17 min 18 sec) 
Heartbeat CPU 0 instructions: 50000003 cycles: 230677869 heartbeat IPC: 0.271962 cumulative IPC: 0.19738 (Simulation time: 3 hr 17 min 29 sec) 
Heartbeat CPU 0 instructions: 52000000 cycles: 107620493 heartbeat IPC: 0.287131 cumulative IPC: 0.448746 (Simulation time: 3 hr 17 min 29 sec) 
Heartbeat CPU 0 instructions: 52000000 cycles: 133623698 heartbeat IPC: 0.259206 cumulative IPC: 0.357512 (Simulation time: 3 hr 17 min 32 sec) 
Heartbeat CPU 0 instructions: 54000000 cycles: 153233833 heartbeat IPC: 0.329761 cumulative IPC: 0.326513 (Simulation time: 3 hr 17 min 33 sec) 
Heartbeat CPU 0 instructions: 52000000 cycles: 200219257 heartbeat IPC: 0.226278 cumulative IPC: 0.238262 (Simulation time: 3 hr 17 min 34 sec) 
Heartbeat CPU 0 instructions: 41000000 cycles: 447224550 heartbeat IPC: 0.083099 cumulative IPC: 0.0809485 (Simulation time: 3 hr 17 min 55 sec) 
Heartbeat CPU 0 instructions: 51000001 cycles: 234355908 heartbeat IPC: 0.271883 cumulative IPC: 0.198563 (Simulation time: 3 hr 17 min 57 sec) 
Heartbeat CPU 0 instructions: 51000000 cycles: 372038716 heartbeat IPC: 0.135666 cumulative IPC: 0.12475 (Simulation time: 3 hr 18 min 4 sec) 
Heartbeat CPU 0 instructions: 44000000 cycles: 490321277 heartbeat IPC: 0.0707757 cumulative IPC: 0.0799435 (Simulation time: 3 hr 18 min 5 sec) 
Heartbeat CPU 0 instructions: 53000001 cycles: 110761488 heartbeat IPC: 0.318371 cumulative IPC: 0.44495 (Simulation time: 3 hr 18 min 6 sec) 
Heartbeat CPU 0 instructions: 55000003 cycles: 156265893 heartbeat IPC: 0.32981 cumulative IPC: 0.326578 (Simulation time: 3 hr 18 min 7 sec) 
Finished CPU 0 instructions: 50000000 cycles: 153102798 cummulative IPC: 0.326578 (Simulation time: 3 hr 18 min 7 sec) 

ChampSim completed all CPUs

Region of Interest Statistics

CPU 0 cummulative IPC: 0.326578 instructions: 50000000 cycles: 153102798
LLC TOTAL     ACCESS:    2633440  HIT:     420046  MISS:    2213394
LLC LOAD      ACCESS:    1915756  HIT:     419722  MISS:    1496034
LLC RFO       ACCESS:          0  HIT:          0  MISS:          0
LLC PREFETCH  ACCESS:          0  HIT:          0  MISS:          0
LLC WRITEBACK ACCESS:     717684  HIT:        324  MISS:     717360
Heartbeat CPU 0 instructions: 53000000 cycles: 205265609 heartbeat IPC: 0.198163 cumulative IPC: 0.237261 (Simulation time: 3 hr 18 min 7 sec) 
Heartbeat CPU 0 instructions: 53000000 cycles: 137666227 heartbeat IPC: 0.24737 cumulative IPC: 0.354226 (Simulation time: 3 hr 18 min 13 sec) 
Heartbeat CPU 0 instructions: 52000000 cycles: 238007126 heartbeat IPC: 0.273881 cumulative IPC: 0.199731 (Simulation time: 3 hr 18 min 22 sec) 
Heartbeat CPU 0 instructions: 44000000 cycles: 362931981 heartbeat IPC: 0.0730383 cumulative IPC: 0.108196 (Simulation time: 3 hr 18 min 28 sec) 
Heartbeat CPU 0 instructions: 45000000 cycles: 498362836 heartbeat IPC: 0.124354 cumulative IPC: 0.0806637 (Simulation time: 3 hr 18 min 34 sec) 
Heartbeat CPU 0 instructions: 54000000 cycles: 113831978 heartbeat IPC: 0.325681 cumulative IPC: 0.441649 (Simulation time: 3 hr 18 min 36 sec) 
Heartbeat CPU 0 instructions: 54000002 cycles: 209873724 heartbeat IPC: 0.217009 cumulative IPC: 0.23681 (Simulation time: 3 hr 18 min 35 sec) 
Heartbeat CPU 0 instructions: 53000001 cycles: 241675586 heartbeat IPC: 0.272594 cumulative IPC: 0.20085 (Simulation time: 3 hr 18 min 43 sec) 
Heartbeat CPU 0 instructions: 54000001 cycles: 140183566 heartbeat IPC: 0.397245 cumulative IPC: 0.355011 (Simulation time: 3 hr 18 min 43 sec) 
Heartbeat CPU 0 instructions: 52000000 cycles: 380863514 heartbeat IPC: 0.113317 cumulative IPC: 0.124483 (Simulation time: 3 hr 18 min 43 sec) 
Heartbeat CPU 0 instructions: 42000000 cycles: 459266303 heartbeat IPC: 0.0830444 cumulative IPC: 0.0810038 (Simulation time: 3 hr 18 min 46 sec) 
Heartbeat CPU 0 instructions: 55000002 cycles: 116866440 heartbeat IPC: 0.329548 cumulative IPC: 0.438665 (Simulation time: 3 hr 19 min 1 sec) 
Finished CPU 0 instructions: 50000002 cycles: 113982284 cummulative IPC: 0.438665 (Simulation time: 3 hr 19 min 1 sec) 

ChampSim completed all CPUs

Region of Interest Statistics

CPU 0 cummulative IPC: 0.438665 instructions: 50000002 cycles: 113982284
LLC TOTAL     ACCESS:    1860283  HIT:     709267  MISS:    1151016
LLC LOAD      ACCESS:    1091619  HIT:     196797  MISS:     894822
LLC RFO       ACCESS:     126461  HIT:     114416  MISS:      12045
LLC PREFETCH  ACCESS:          0  HIT:          0  MISS:          0
LLC WRITEBACK ACCESS:     642203  HIT:     398054  MISS:     244149
Heartbeat CPU 0 instructions: 55000001 cycles: 214147104 heartbeat IPC: 0.234007 cumulative IPC: 0.236754 (Simulation time: 3 hr 19 min 1 sec) 
Finished CPU 0 instructions: 50000001 cycles: 211190060 cummulative IPC: 0.236754 (Simulation time: 3 hr 19 min 1 sec) 

ChampSim completed all CPUs

Region of Interest Statistics

CPU 0 cummulative IPC: 0.236754 instructions: 50000001 cycles: 211190060
LLC TOTAL     ACCESS:    1600849  HIT:     712499  MISS:     888350
LLC LOAD      ACCESS:     958718  HIT:     251012  MISS:     707706
LLC RFO       ACCESS:     164073  HIT:      42234  MISS:     121839
LLC PREFETCH  ACCESS:          0  HIT:          0  MISS:          0
LLC WRITEBACK ACCESS:     478058  HIT:     419253  MISS:      58805
Heartbeat CPU 0 instructions: 54000000 cycles: 245334227 heartbeat IPC: 0.273325 cumulative IPC: 0.201943 (Simulation time: 3 hr 19 min 2 sec) 
Heartbeat CPU 0 instructions: 46000002 cycles: 509760100 heartbeat IPC: 0.0877405 cumulative IPC: 0.0808227 (Simulation time: 3 hr 19 min 4 sec) 
Heartbeat CPU 0 instructions: 55000002 cycles: 142512748 heartbeat IPC: 0.429336 cumulative IPC: 0.356244 (Simulation time: 3 hr 19 min 6 sec) 
Finished CPU 0 instructions: 50000001 cycles: 140353232 cummulative IPC: 0.356244 (Simulation time: 3 hr 19 min 6 sec) 

ChampSim completed all CPUs

Region of Interest Statistics

CPU 0 cummulative IPC: 0.356244 instructions: 50000001 cycles: 140353232
LLC TOTAL     ACCESS:    1601692  HIT:     706373  MISS:     895319
LLC LOAD      ACCESS:    1392584  HIT:     507443  MISS:     885141
LLC RFO       ACCESS:      12669  HIT:       2798  MISS:       9871
LLC PREFETCH  ACCESS:          0  HIT:          0  MISS:          0
LLC WRITEBACK ACCESS:     196439  HIT:     196132  MISS:        307
Heartbeat CPU 0 instructions: 45000001 cycles: 371310271 heartbeat IPC: 0.119356 cumulative IPC: 0.10845 (Simulation time: 3 hr 19 min 6 sec) 
Heartbeat CPU 0 instructions: 53000000 cycles: 387629486 heartbeat IPC: 0.147798 cumulative IPC: 0.124894 (Simulation time: 3 hr 19 min 7 sec) 
Heartbeat CPU 0 instructions: 55000000 cycles: 249009209 heartbeat IPC: 0.27211 cumulative IPC: 0.20299 (Simulation time: 3 hr 19 min 15 sec) 
Finished CPU 0 instructions: 50000000 cycles: 246318035 cummulative IPC: 0.20299 (Simulation time: 3 hr 19 min 15 sec) 

ChampSim completed all CPUs

Region of Interest Statistics

CPU 0 cummulative IPC: 0.20299 instructions: 50000000 cycles: 246318035
LLC TOTAL     ACCESS:    2081068  HIT:     378493  MISS:    1702575
LLC LOAD      ACCESS:    1000872  HIT:     101450  MISS:     899422
LLC RFO       ACCESS:     447867  HIT:      27033  MISS:     420834
LLC PREFETCH  ACCESS:          0  HIT:          0  MISS:          0
LLC WRITEBACK ACCESS:     632329  HIT:     250010  MISS:     382319
Heartbeat CPU 0 instructions: 43000000 cycles: 471369195 heartbeat IPC: 0.0826249 cumulative IPC: 0.0810456 (Simulation time: 3 hr 19 min 16 sec) 
Heartbeat CPU 0 instructions: 54000000 cycles: 395390924 heartbeat IPC: 0.128842 cumulative IPC: 0.124972 (Simulation time: 3 hr 19 min 21 sec) 
Heartbeat CPU 0 instructions: 46000001 cycles: 376832468 heartbeat IPC: 0.181087 cumulative IPC: 0.109521 (Simulation time: 3 hr 19 min 23 sec) 
Heartbeat CPU 0 instructions: 47000002 cycles: 524188849 heartbeat IPC: 0.0693061 cumulative IPC: 0.0805042 (Simulation time: 3 hr 19 min 25 sec) 
Heartbeat CPU 0 instructions: 44000000 cycles: 483490006 heartbeat IPC: 0.0825027 cumulative IPC: 0.0810823 (Simulation time: 3 hr 19 min 33 sec) 
Heartbeat CPU 0 instructions: 55000001 cycles: 403717172 heartbeat IPC: 0.120102 cumulative IPC: 0.12487 (Simulation time: 3 hr 19 min 33 sec) 
Finished CPU 0 instructions: 50000000 cycles: 400415061 cummulative IPC: 0.12487 (Simulation time: 3 hr 19 min 33 sec) 

ChampSim completed all CPUs

Region of Interest Statistics

CPU 0 cummulative IPC: 0.12487 instructions: 50000000 cycles: 400415061
LLC TOTAL     ACCESS:    4073918  HIT:    1441619  MISS:    2632299
LLC LOAD      ACCESS:    1208958  HIT:     249172  MISS:     959786
LLC RFO       ACCESS:    1207739  HIT:     411783  MISS:     795956
LLC PREFETCH  ACCESS:          0  HIT:          0  MISS:          0
LLC WRITEBACK ACCESS:    1657221  HIT:     780664  MISS:     876557
Heartbeat CPU 0 instructions: 48000000 cycles: 532660252 heartbeat IPC: 0.118044 cumulative IPC: 0.081104 (Simulation time: 3 hr 19 min 37 sec) 
Heartbeat CPU 0 instructions: 47000002 cycles: 387075861 heartbeat IPC: 0.097624 cumulative IPC: 0.109205 (Simulation time: 3 hr 19 min 39 sec) 
Heartbeat CPU 0 instructions: 45000001 cycles: 495565858 heartbeat IPC: 0.08281 cumulative IPC: 0.0811247 (Simulation time: 3 hr 19 min 46 sec) 
Heartbeat CPU 0 instructions: 49000003 cycles: 544100163 heartbeat IPC: 0.0874135 cumulative IPC: 0.0812373 (Simulation time: 3 hr 19 min 49 sec) 
Heartbeat CPU 0 instructions: 48000000 cycles: 399299745 heartbeat IPC: 0.0818069 cumulative IPC: 0.108361 (Simulation time: 3 hr 19 min 54 sec) 
Heartbeat CPU 0 instructions: 46000000 cycles: 507609909 heartbeat IPC: 0.0830285 cumulative IPC: 0.0811701 (Simulation time: 3 hr 19 min 59 sec) 
Heartbeat CPU 0 instructions: 49000000 cycles: 404888519 heartbeat IPC: 0.17893 cumulative IPC: 0.109341 (Simulation time: 3 hr 20 min 4 sec) 
Heartbeat CPU 0 instructions: 50000000 cycles: 558544102 heartbeat IPC: 0.069233 cumulative IPC: 0.0809255 (Simulation time: 3 hr 20 min 3 sec) 
Heartbeat CPU 0 instructions: 47000002 cycles: 519619297 heartbeat IPC: 0.0832684 cumulative IPC: 0.0812188 (Simulation time: 3 hr 20 min 11 sec) 
Heartbeat CPU 0 instructions: 51000000 cycles: 566645073 heartbeat IPC: 0.123442 cumulative IPC: 0.081536 (Simulation time: 3 hr 20 min 12 sec) 
Heartbeat CPU 0 instructions: 50000001 cycles: 411891646 heartbeat IPC: 0.142793 cumulative IPC: 0.109913 (Simulation time: 3 hr 20 min 13 sec) 
Heartbeat CPU 0 instructions: 48000000 cycles: 531350976 heartbeat IPC: 0.0852391 cumulative IPC: 0.081308 (Simulation time: 3 hr 20 min 21 sec) 
Heartbeat CPU 0 instructions: 52000000 cycles: 577465722 heartbeat IPC: 0.0924159 cumulative IPC: 0.0817407 (Simulation time: 3 hr 20 min 23 sec) 
Heartbeat CPU 0 instructions: 51000001 cycles: 426559554 heartbeat IPC: 0.068176 cumulative IPC: 0.108469 (Simulation time: 3 hr 20 min 27 sec) 
Heartbeat CPU 0 instructions: 49000000 cycles: 543494875 heartbeat IPC: 0.0823459 cumulative IPC: 0.0813313 (Simulation time: 3 hr 20 min 32 sec) 
Heartbeat CPU 0 instructions: 52000000 cycles: 432045410 heartbeat IPC: 0.182287 cumulative IPC: 0.109412 (Simulation time: 3 hr 20 min 36 sec) 
Heartbeat CPU 0 instructions: 53000000 cycles: 592758817 heartbeat IPC: 0.065389 cumulative IPC: 0.0813171 (Simulation time: 3 hr 20 min 37 sec) 
Heartbeat CPU 0 instructions: 50000002 cycles: 555609295 heartbeat IPC: 0.0825464 cumulative IPC: 0.0813579 (Simulation time: 3 hr 20 min 42 sec) 
Heartbeat CPU 0 instructions: 53000000 cycles: 437152352 heartbeat IPC: 0.195812 cumulative IPC: 0.110427 (Simulation time: 3 hr 20 min 44 sec) 
Heartbeat CPU 0 instructions: 54000000 cycles: 601152925 heartbeat IPC: 0.119131 cumulative IPC: 0.0818473 (Simulation time: 3 hr 20 min 46 sec) 
Heartbeat CPU 0 instructions: 51000002 cycles: 567710233 heartbeat IPC: 0.0826382 cumulative IPC: 0.0813853 (Simulation time: 3 hr 20 min 52 sec) 
Heartbeat CPU 0 instructions: 55000000 cycles: 610532286 heartbeat IPC: 0.106617 cumulative IPC: 0.0822294 (Simulation time: 3 hr 20 min 54 sec) 
Finished CPU 0 instructions: 50000003 cycles: 608055380 cummulative IPC: 0.0822294 (Simulation time: 3 hr 20 min 54 sec) 

ChampSim completed all CPUs

Region of Interest Statistics

CPU 0 cummulative IPC: 0.0822294 instructions: 50000003 cycles: 608055380
LLC TOTAL     ACCESS:    6474177  HIT:    2924760  MISS:    3549417
LLC LOAD      ACCESS:    5697288  HIT:    2389748  MISS:    3307540
LLC RFO       ACCESS:      65922  HIT:      31201  MISS:      34721
LLC PREFETCH  ACCESS:          0  HIT:          0  MISS:          0
LLC WRITEBACK ACCESS:     710967  HIT:     503811  MISS:     207156
Heartbeat CPU 0 instructions: 54000002 cycles: 452787836 heartbeat IPC: 0.0639572 cumulative IPC: 0.108814 (Simulation time: 3 hr 20 min 57 sec) 
Heartbeat CPU 0 instructions: 52000000 cycles: 579733805 heartbeat IPC: 0.0831698 cumulative IPC: 0.0814225 (Simulation time: 3 hr 21 min 1 sec) 
Heartbeat CPU 0 instructions: 55000002 cycles: 458779235 heartbeat IPC: 0.166906 cumulative IPC: 0.109576 (Simulation time: 3 hr 21 min 4 sec) 
Finished CPU 0 instructions: 50000001 cycles: 456302559 cummulative IPC: 0.109576 (Simulation time: 3 hr 21 min 4 sec) 

ChampSim completed all CPUs

Region of Interest Statistics

CPU 0 cummulative IPC: 0.109576 instructions: 50000001 cycles: 456302559
LLC TOTAL     ACCESS:    5613634  HIT:    2243977  MISS:    3369657
LLC LOAD      ACCESS:    4492990  HIT:    1567070  MISS:    2925920
LLC RFO       ACCESS:      98865  HIT:      51588  MISS:      47277
LLC PREFETCH  ACCESS:          0  HIT:          0  MISS:          0
LLC WRITEBACK ACCESS:    1021779  HIT:     625319  MISS:     396460
Heartbeat CPU 0 instructions: 53000000 cycles: 591882156 heartbeat IPC: 0.0823157 cumulative IPC: 0.0814409 (Simulation time: 3 hr 21 min 10 sec) 
Heartbeat CPU 0 instructions: 54000000 cycles: 603888388 heartbeat IPC: 0.0832901 cumulative IPC: 0.0814778 (Simulation time: 3 hr 21 min 18 sec) 
Heartbeat CPU 0 instructions: 55000000 cycles: 615940230 heartbeat IPC: 0.0829749 cumulative IPC: 0.0815072 (Simulation time: 3 hr 21 min 26 sec) 
Finished CPU 0 instructions: 50000000 cycles: 613442703 cummulative IPC: 0.0815072 (Simulation time: 3 hr 21 min 26 sec) 

ChampSim completed all CPUs

Region of Interest Statistics

CPU 0 cummulative IPC: 0.0815072 instructions: 50000000 cycles: 613442703
LLC TOTAL     ACCESS:    7409446  HIT:    3899389  MISS:    3510057
LLC LOAD      ACCESS:    7242679  HIT:    3780787  MISS:    3461892
LLC RFO       ACCESS:      12949  HIT:       7128  MISS:       5821
LLC PREFETCH  ACCESS:          0  HIT:          0  MISS:          0
LLC WRITEBACK ACCESS:     153818  HIT:     111474  MISS:      42344
