

*** ChampSim Multicore Out-of-Order Simulator ***
*** ChampSim Multicore Out-of-Order Simulator ***


Warmup Instructions: 5000000
Warmup Instructions: 5000000
Simulation Instructions: 50000000
Simulation Instructions: 50000000
Configuration: 1
Configuration: 1
Number of CPUs: 1
Number of CPUs: 1
LLC sets: 2048
LLC ways: 16
LLC sets: 2048
LLC ways: 16
Off-chip DRAM Channels: 1 Width: 64-bit Data Rate: 1600 MT/s

Off-chip DRAM Channels: 1 Width: 64-bit Data Rate: 1600 MT/s


*** ChampSim Multicore Out-of-Order Simulator ***

Warmup Instructions: 5000000
Simulation Instructions: 50000000
Configuration: 1
Number of CPUs: 1
LLC sets: 2048
LLC ways: 16
Off-chip DRAM Channels: 1 Width: 64-bit Data Rate: 1600 MT/s


*** ChampSim Multicore Out-of-Order Simulator ***

Warmup Instructions: 5000000
Simulation Instructions: 50000000
Configuration: 1
Number of CPUs: 1
LLC sets: 2048
LLC ways: 16
Off-chip DRAM Channels: 1 Width: 64-bit Data Rate: 1600 MT/s


*** ChampSim Multicore Out-of-Order Simulator ***

Warmup Instructions: 5000000



*** ChampSim Multicore Out-of-Order Simulator ***


*** ChampSim Multicore Out-of-Order Simulator ***
Warmup Instructions: 5000000

Simulation Instructions: 50000000
Configuration: 1
Number of CPUs: 1
LLC sets: 2048
LLC ways: 16
*** ChampSim Multicore Out-of-Order Simulator ***


Warmup Instructions: 5000000
Off-chip DRAM Channels: 1 Width: 64-bit Data Rate: 1600 MT/s

Simulation Instructions: 50000000
Warmup Instructions: 5000000
Simulation Instructions: 50000000
Configuration: 1
Configuration: 1
*** ChampSim Multicore Out-of-Order Simulator ***

Number of CPUs: 1
Number of CPUs: 1
LLC sets: 2048
LLC ways: 16
Off-chip DRAM Channels: 1 Width: 64-bit Data Rate: 1600 MT/s

LLC sets: 2048
LLC ways: 16


*** ChampSim Multicore Out-of-Order Simulator ***

Simulation Instructions: 50000000
Warmup Instructions: 5000000
*** ChampSim Multicore Out-of-Order Simulator ***
Simulation Instructions: 50000000

Configuration: 1
Number of CPUs: 1
LLC sets: 2048
LLC ways: 16
Configuration: 1
Warmup Instructions: 5000000
Simulation Instructions: 50000000
Configuration: 1
Number of CPUs: 1
Off-chip DRAM Channels: 1 Width: 64-bit Data Rate: 1600 MT/s

LLC sets: 2048
Number of CPUs: 1
LLC ways: 16
LLC sets: 2048
LLC ways: 16
Off-chip DRAM Channels: 1 Width: 64-bit Data Rate: 1600 MT/s

Off-chip DRAM Channels: 1 Width: 64-bit Data Rate: 1600 MT/s


*** ChampSim Multicore Out-of-Order Simulator ***

Warmup Instructions: 5000000

*** ChampSim Multicore Out-of-Order Simulator ***

*** ChampSim Multicore Out-of-Order Simulator ***

Warmup Instructions: 5000000
Simulation Instructions: 50000000
Configuration: 1
Number of CPUs: 1
LLC sets: 2048
LLC ways: 16
Off-chip DRAM Channels: 1 Width: 64-bit Data Rate: 1600 MT/s


*** ChampSim Multicore Out-of-Order Simulator ***

Warmup Instructions: 5000000
Simulation Instructions: 50000000
Configuration: 1
Number of CPUs: 1
LLC sets: 2048
LLC ways: 16
Off-chip DRAM Channels: 1 Width: 64-bit Data Rate: 1600 MT/s



Warmup Instructions: 5000000

Simulation Instructions: 50000000
*** ChampSim Multicore Out-of-Order Simulator ***

Configuration: 1
Number of CPUs: 1
LLC sets: 2048
LLC ways: 16
Off-chip DRAM Channels: 1 Width: 64-bit Data Rate: 1600 MT/s

Simulation Instructions: 50000000
Configuration: 1
Number of CPUs: 1
LLC sets: 2048
LLC ways: 16
Off-chip DRAM Channels: 1 Width: 64-bit Data Rate: 1600 MT/s


*** ChampSim Multicore Out-of-Order Simulator ***

Warmup Instructions: 5000000

Simulation Instructions: 50000000
Configuration: 1
Number of CPUs: 1
LLC sets: 2048
LLC ways: 16
Warmup Instructions: 5000000
*** ChampSim Multicore Out-of-Order Simulator ***
Off-chip DRAM Channels: 1 Width: 64-bit Data Rate: 1600 MT/s


*** ChampSim Multicore Out-of-Order Simulator ***
Simulation Instructions: 50000000
Warmup Instructions: 5000000
Simulation Instructions: 50000000
Configuration: 1

Number of CPUs: 1
LLC sets: 2048
LLC ways: 16
Warmup Instructions: 5000000
Simulation Instructions: 50000000
Configuration: 1
Number of CPUs: 1
LLC sets: 2048
Off-chip DRAM Channels: 1 Width: 64-bit Data Rate: 1600 MT/s

LLC ways: 16
Off-chip DRAM Channels: 1 Width: 64-bit Data Rate: 1600 MT/s

Warmup Instructions: 5000000
Simulation Instructions: 50000000
Configuration: 1
Number of CPUs: 1
LLC sets: 2048
LLC ways: 16
Off-chip DRAM Channels: 1 Width: 64-bit Data Rate: 1600 MT/s

Off-chip DRAM Channels: 1 Width: 64-bit Data Rate: 1600 MT/s

*** ChampSim Multicore Out-of-Order Simulator ***


Warmup Instructions: 5000000
Simulation Instructions: 50000000
Configuration: 1
Number of CPUs: 1
LLC sets: 2048
LLC ways: 16
Off-chip DRAM Channels: 1 Width: 64-bit Data Rate: 1600 MT/s

*** ChampSim Multicore Out-of-Order Simulator ***

Warmup Instructions: 5000000
Simulation Instructions: 50000000
Configuration: 1
Number of CPUs: 1
LLC sets: 2048
LLC ways: 16
Off-chip DRAM Channels: 1 Width: 64-bit Data Rate: 1600 MT/s



*** ChampSim Multicore Out-of-Order Simulator ***

Warmup Instructions: 5000000
Simulation Instructions: 50000000
Configuration: 1
Number of CPUs: 1
LLC sets: 2048
LLC ways: 16
Off-chip DRAM Channels: 1 Width: 64-bit Data Rate: 1600 MT/s

Configuration: 1
Number of CPUs: 1
LLC sets: 2048
LLC ways: 16
Off-chip DRAM Channels: 1 Width: 64-bit Data Rate: 1600 MT/s

*** ChampSim Multicore Out-of-Order Simulator ***

Warmup Instructions: 5000000
Simulation Instructions: 50000000
Configuration: 1
Number of CPUs: 1
LLC sets: 2048
LLC ways: 16
Off-chip DRAM Channels: 1 Width: 64-bit Data Rate: 1600 MT/s



*** ChampSim Multicore Out-of-Order Simulator ***


*** ChampSim Multicore Out-of-Order Simulator ***

Warmup Instructions: 5000000
Simulation Instructions: 50000000
Configuration: 1
Number of CPUs: 1
LLC sets: 2048
LLC ways: 16
Warmup Instructions: 5000000
Simulation Instructions: 50000000
Configuration: 1
Number of CPUs: 1
LLC sets: 2048
LLC ways: 16
Off-chip DRAM Channels: 1 Width: 64-bit Data Rate: 1600 MT/s

Off-chip DRAM Channels: 1 Width: 64-bit Data Rate: 1600 MT/s


*** ChampSim Multicore Out-of-Order Simulator ***

Warmup Instructions: 5000000
Simulation Instructions: 50000000
Configuration: 1
Number of CPUs: 1
LLC sets: 2048
LLC ways: 16
Off-chip DRAM Channels: 1 Width: 64-bit Data Rate: 1600 MT/s


*** ChampSim Multicore Out-of-Order Simulator ***

Warmup Instructions: 5000000
Simulation Instructions: 50000000
Configuration: 1
Number of CPUs: 1
LLC sets: 2048
LLC ways: 16
Off-chip DRAM Channels: 1 Width: 64-bit Data Rate: 1600 MT/s


*** ChampSim Multicore Out-of-Order Simulator ***

Warmup Instructions: 5000000
Simulation Instructions: 50000000
Configuration: 1
Number of CPUs: 1
LLC sets: 2048
LLC ways: 16
Off-chip DRAM Channels: 1 Width: 64-bit Data Rate: 1600 MT/s

*** ChampSim Multicore Out-of-Order Simulator ***


Warmup Instructions: 5000000
Simulation Instructions: 50000000
Configuration: 1
Number of CPUs: 1
LLC sets: 2048
LLC ways: 16
Off-chip DRAM Channels: 1 Width: 64-bit Data Rate: 1600 MT/s


*** ChampSim Multicore Out-of-Order Simulator ***

*** ChampSim Multicore Out-of-Order Simulator ***

Warmup Instructions: 5000000
Simulation Instructions: 50000000
Configuration: 1
Number of CPUs: 1
LLC sets: 2048
LLC ways: 16
Off-chip DRAM Channels: 1 Width: 64-bit Data Rate: 1600 MT/s


*** ChampSim Multicore Out-of-Order Simulator ***

Warmup Instructions: 5000000
Simulation Instructions: 50000000
Configuration: 1
Number of CPUs: 1
LLC sets: 2048
LLC ways: 16
Off-chip DRAM Channels: 1 Width: 64-bit Data Rate: 1600 MT/s


*** ChampSim Multicore Out-of-Order Simulator ***

Warmup Instructions: 5000000

Simulation Instructions: 50000000
Configuration: 1
Number of CPUs: 1
LLC sets: 2048
LLC ways: 16

*** ChampSim Multicore Out-of-Order Simulator ***

*** ChampSim Multicore Out-of-Order Simulator ***

Off-chip DRAM Channels: 1 Width: 64-bit Data Rate: 1600 MT/s


*** ChampSim Multicore Out-of-Order Simulator ***


Warmup Instructions: 5000000
Simulation Instructions: 50000000
Configuration: 1
Number of CPUs: 1
LLC sets: 2048
LLC ways: 16
Warmup Instructions: 5000000
Simulation Instructions: 50000000

*** ChampSim Multicore Out-of-Order Simulator ***

Warmup Instructions: 5000000
Simulation Instructions: 50000000
Configuration: 1
Number of CPUs: 1
LLC sets: 2048
LLC ways: 16

Off-chip DRAM Channels: 1 Width: 64-bit Data Rate: 1600 MT/s

*** ChampSim Multicore Out-of-Order Simulator ***

Warmup Instructions: 5000000
Simulation Instructions: 50000000
Configuration: 1
Number of CPUs: 1
LLC sets: 2048
LLC ways: 16
Off-chip DRAM Channels: 1 Width: 64-bit Data Rate: 1600 MT/s


*** ChampSim Multicore Out-of-Order Simulator ***

Warmup Instructions: 5000000
Simulation Instructions: 50000000
Configuration: 1
Number of CPUs: 1
LLC sets: 2048
LLC ways: 16
Off-chip DRAM Channels: 1 Width: 64-bit Data Rate: 1600 MT/s

Warmup Instructions: 5000000
Warmup Instructions: 5000000
Simulation Instructions: 50000000
Configuration: 1
Simulation Instructions: 50000000
Number of CPUs: 1
Configuration: 1
LLC sets: 2048
LLC ways: 16
Number of CPUs: 1
LLC sets: 2048
LLC ways: 16

Off-chip DRAM Channels: 1 Width: 64-bit Data Rate: 1600 MT/s

Off-chip DRAM Channels: 1 Width: 64-bit Data Rate: 1600 MT/s


*** ChampSim Multicore Out-of-Order Simulator ***



*** ChampSim Multicore Out-of-Order Simulator ***
Warmup Instructions: 5000000
*** ChampSim Multicore Out-of-Order Simulator ***


Simulation Instructions: 50000000
Configuration: 1
Number of CPUs: 1
LLC sets: 2048
Warmup Instructions: 5000000
Simulation Instructions: 50000000
Configuration: 1
Number of CPUs: 1
LLC sets: 2048
LLC ways: 16
Warmup Instructions: 5000000
*** ChampSim Multicore Out-of-Order Simulator ***

LLC ways: 16
Simulation Instructions: 50000000
Off-chip DRAM Channels: 1 Width: 64-bit Data Rate: 1600 MT/s

Configuration: 1
Off-chip DRAM Channels: 1 Width: 64-bit Data Rate: 1600 MT/s

Number of CPUs: 1
LLC sets: 2048
LLC ways: 16
Warmup Instructions: 5000000
Simulation Instructions: 50000000
Configuration: 1
Number of CPUs: 1
Off-chip DRAM Channels: 1 Width: 64-bit Data Rate: 1600 MT/s



*** ChampSim Multicore Out-of-Order Simulator ***
*** ChampSim Multicore Out-of-Order Simulator ***


Off-chip DRAM Channels: 1 Width: 64-bit Data Rate: 1600 MT/s

Warmup Instructions: 5000000
Simulation Instructions: 50000000
Configuration: 1
Configuration: 1
Number of CPUs: 1
LLC sets: 2048
LLC ways: 16

Number of CPUs: 1
LLC sets: 2048
Off-chip DRAM Channels: 1 Width: 64-bit Data Rate: 1600 MT/s

LLC ways: 16

*** ChampSim Multicore Out-of-Order Simulator ***
Off-chip DRAM Channels: 1 Width: 64-bit Data Rate: 1600 MT/s


Warmup Instructions: 5000000
Simulation Instructions: 50000000
*** ChampSim Multicore Out-of-Order Simulator ***
Configuration: 1

Number of CPUs: 1
LLC sets: 2048
LLC ways: 16
Warmup Instructions: 5000000
Off-chip DRAM Channels: 1 Width: 64-bit Data Rate: 1600 MT/s

Simulation Instructions: 50000000
Configuration: 1
Number of CPUs: 1
LLC sets: 2048
LLC ways: 16
Off-chip DRAM Channels: 1 Width: 64-bit Data Rate: 1600 MT/s


LLC sets: 2048
*** ChampSim Multicore Out-of-Order Simulator ***

LLC ways: 16
*** ChampSim Multicore Out-of-Order Simulator ***
Off-chip DRAM Channels: 1 Width: 64-bit Data Rate: 1600 MT/s

Warmup Instructions: 5000000

Warmup Instructions: 5000000
Simulation Instructions: 50000000
Simulation Instructions: 50000000
Configuration: 1
Configuration: 1
Number of CPUs: 1
Number of CPUs: 1
LLC sets: 2048
Warmup Instructions: 5000000
LLC sets: 2048
LLC ways: 16
Simulation Instructions: 50000000
LLC ways: 16
Configuration: 1
Number of CPUs: 1
LLC sets: 2048
LLC ways: 16
Off-chip DRAM Channels: 1 Width: 64-bit Data Rate: 1600 MT/s

Off-chip DRAM Channels: 1 Width: 64-bit Data Rate: 1600 MT/s

Off-chip DRAM Channels: 1 Width: 64-bit Data Rate: 1600 MT/s


*** ChampSim Multicore Out-of-Order Simulator ***

Warmup Instructions: 5000000
Simulation Instructions: 50000000
Configuration: 1
Number of CPUs: 1
LLC sets: 2048
LLC ways: 16
Off-chip DRAM Channels: 1 Width: 64-bit Data Rate: 1600 MT/s


*** ChampSim Multicore Out-of-Order Simulator ***

Warmup Instructions: 5000000
Simulation Instructions: 50000000
Configuration: 1
Number of CPUs: 1
LLC sets: 2048
LLC ways: 16
Off-chip DRAM Channels: 1 Width: 64-bit Data Rate: 1600 MT/s

CPU 0 runs /datasets/cs240c-wi22-a00-public/data/Assignment2-gz/libquantum_1735B.trace.gz
Heartbeat CPU 0 instructions: 1000003 cycles: 333345 heartbeat IPC: 2.9999 cumulative IPC: 2.9999 (Simulation time: 0 hr 1 min 54 sec) 
CPU 0 runs /datasets/cs240c-wi22-a00-public/data/Assignment2-gz/libquantum_964B.trace.gz
Heartbeat CPU 0 instructions: 1000001 cycles: 333344 heartbeat IPC: 2.99991 cumulative IPC: 2.99991 (Simulation time: 0 hr 2 min 3 sec) 
CPU 0 runs /datasets/cs240c-wi22-a00-public/data/Assignment2-gz/libquantum_1210B.trace.gz
Heartbeat CPU 0 instructions: 1000003 cycles: 314916 heartbeat IPC: 3.17546 cumulative IPC: 3.17546 (Simulation time: 0 hr 2 min 12 sec) 
CPU 0 runs /datasets/cs240c-wi22-a00-public/data/Assignment2-gz/calculix_2655B.trace.gz
Heartbeat CPU 0 instructions: 1000003 cycles: 371402 heartbeat IPC: 2.69251 cumulative IPC: 2.69251 (Simulation time: 0 hr 2 min 16 sec) 
CPU 0 runs /datasets/cs240c-wi22-a00-public/data/Assignment2-gz/zeusmp_100B.trace.gz
Heartbeat CPU 0 instructions: 1000002 cycles: 464468 heartbeat IPC: 2.15301 cumulative IPC: 2.15301 (Simulation time: 0 hr 2 min 21 sec) 
CPU 0 runs /datasets/cs240c-wi22-a00-public/data/Assignment2-gz/calculix_2670B.trace.gz
Heartbeat CPU 0 instructions: 1000003 cycles: 520140 heartbeat IPC: 1.92257 cumulative IPC: 1.92257 (Simulation time: 0 hr 2 min 27 sec) 
CPU 0 runs /datasets/cs240c-wi22-a00-public/data/Assignment2-gz/zeusmp_600B.trace.gz
Heartbeat CPU 0 instructions: 1000000 cycles: 407507 heartbeat IPC: 2.45395 cumulative IPC: 2.45395 (Simulation time: 0 hr 2 min 37 sec) 
CPU 0 runs /datasets/cs240c-wi22-a00-public/data/Assignment2-gz/sphinx3_2520B.trace.gz
Heartbeat CPU 0 instructions: 1000003 cycles: 338265 heartbeat IPC: 2.95627 cumulative IPC: 2.95627 (Simulation time: 0 hr 2 min 40 sec) 
CPU 0 runs /datasets/cs240c-wi22-a00-public/data/Assignment2-gz/soplex_205B.trace.gz
Heartbeat CPU 0 instructions: 1000000 cycles: 394357 heartbeat IPC: 2.53577 cumulative IPC: 2.53577 (Simulation time: 0 hr 2 min 43 sec) 
CPU 0 runs /datasets/cs240c-wi22-a00-public/data/Assignment2-gz/zeusmp_300B.trace.gz
Heartbeat CPU 0 instructions: 1000003 cycles: 508391 heartbeat IPC: 1.967 cumulative IPC: 1.967 (Simulation time: 0 hr 2 min 47 sec) 
CPU 0 runs /datasets/cs240c-wi22-a00-public/data/Assignment2-gz/soplex_66B.trace.gz
Heartbeat CPU 0 instructions: 1000003 cycles: 416340 heartbeat IPC: 2.40189 cumulative IPC: 2.40189 (Simulation time: 0 hr 2 min 48 sec) 
CPU 0 runs /datasets/cs240c-wi22-a00-public/data/Assignment2-gz/sphinx3_1339B.trace.gz
Heartbeat CPU 0 instructions: 1000001 cycles: 338437 heartbeat IPC: 2.95476 cumulative IPC: 2.95476 (Simulation time: 0 hr 2 min 49 sec) 
CPU 0 runs /datasets/cs240c-wi22-a00-public/data/Assignment2-gz/omnetpp_4B.trace.gz
Heartbeat CPU 0 instructions: 1000001 cycles: 566835 heartbeat IPC: 1.76418 cumulative IPC: 1.76418 (Simulation time: 0 hr 2 min 49 sec) 
CPU 0 runs /datasets/cs240c-wi22-a00-public/data/Assignment2-gz/bzip2_281B.trace.gz
Heartbeat CPU 0 instructions: 1000000 cycles: 445723 heartbeat IPC: 2.24355 cumulative IPC: 2.24355 (Simulation time: 0 hr 2 min 51 sec) 
CPU 0 runs /datasets/cs240c-wi22-a00-public/data/Assignment2-gz/sphinx3_883B.trace.gz
Heartbeat CPU 0 instructions: 1000003 cycles: 413061 heartbeat IPC: 2.42096 cumulative IPC: 2.42096 (Simulation time: 0 hr 2 min 51 sec) 
CPU 0 runs /datasets/cs240c-wi22-a00-public/data/Assignment2-gz/bzip2_183B.trace.gz
Heartbeat CPU 0 instructions: 1000000 cycles: 448069 heartbeat IPC: 2.2318 cumulative IPC: 2.2318 (Simulation time: 0 hr 2 min 52 sec) 
CPU 0 runs /datasets/cs240c-wi22-a00-public/data/Assignment2-gz/astar_163B.trace.gz
Heartbeat CPU 0 instructions: 1000002 cycles: 530774 heartbeat IPC: 1.88404 cumulative IPC: 1.88404 (Simulation time: 0 hr 2 min 54 sec) 
CPU 0 runs /datasets/cs240c-wi22-a00-public/data/Assignment2-gz/bzip2_259B.trace.gz
Heartbeat CPU 0 instructions: 1000002 cycles: 428954 heartbeat IPC: 2.33126 cumulative IPC: 2.33126 (Simulation time: 0 hr 2 min 55 sec) 
CPU 0 runs /datasets/cs240c-wi22-a00-public/data/Assignment2-gz/milc_744B.trace.gz
Heartbeat CPU 0 instructions: 1000000 cycles: 383399 heartbeat IPC: 2.60825 cumulative IPC: 2.60825 (Simulation time: 0 hr 2 min 55 sec) 
CPU 0 runs /datasets/cs240c-wi22-a00-public/data/Assignment2-gz/lbm_1004B.trace.gz
Heartbeat CPU 0 instructions: 1000002 cycles: 391495 heartbeat IPC: 2.55432 cumulative IPC: 2.55432 (Simulation time: 0 hr 2 min 56 sec) 
CPU 0 runs /datasets/cs240c-wi22-a00-public/data/Assignment2-gz/perlbench_105B.trace.gz
Heartbeat CPU 0 instructions: 1000000 cycles: 578082 heartbeat IPC: 1.72986 cumulative IPC: 1.72986 (Simulation time: 0 hr 2 min 57 sec) 
CPU 0 runs /datasets/cs240c-wi22-a00-public/data/Assignment2-gz/astar_23B.trace.gz
Heartbeat CPU 0 instructions: 1000000 cycles: 360107 heartbeat IPC: 2.77695 cumulative IPC: 2.77695 (Simulation time: 0 hr 2 min 58 sec) 
CPU 0 runs /datasets/cs240c-wi22-a00-public/data/Assignment2-gz/omnetpp_17B.trace.gz
Heartbeat CPU 0 instructions: 1000000 cycles: 559780 heartbeat IPC: 1.78642 cumulative IPC: 1.78642 (Simulation time: 0 hr 2 min 58 sec) 
CPU 0 runs /datasets/cs240c-wi22-a00-public/data/Assignment2-gz/calculix_3812B.trace.gz
Heartbeat CPU 0 instructions: 1000001 cycles: 475279 heartbeat IPC: 2.10403 cumulative IPC: 2.10403 (Simulation time: 0 hr 3 min 0 sec) 
CPU 0 runs /datasets/cs240c-wi22-a00-public/data/Assignment2-gz/GemsFDTD_716B.trace.gz
Heartbeat CPU 0 instructions: 1000000 cycles: 415494 heartbeat IPC: 2.40677 cumulative IPC: 2.40677 (Simulation time: 0 hr 3 min 3 sec) 
CPU 0 runs /datasets/cs240c-wi22-a00-public/data/Assignment2-gz/lbm_564B.trace.gz
Heartbeat CPU 0 instructions: 1000000 cycles: 390238 heartbeat IPC: 2.56254 cumulative IPC: 2.56254 (Simulation time: 0 hr 3 min 6 sec) 
CPU 0 runs /datasets/cs240c-wi22-a00-public/data/Assignment2-gz/milc_409B.trace.gz
Heartbeat CPU 0 instructions: 1000000 cycles: 402731 heartbeat IPC: 2.48305 cumulative IPC: 2.48305 (Simulation time: 0 hr 3 min 6 sec) 
CPU 0 runs /datasets/cs240c-wi22-a00-public/data/Assignment2-gz/wrf_1650B.trace.gz
Heartbeat CPU 0 instructions: 1000000 cycles: 514412 heartbeat IPC: 1.94397 cumulative IPC: 1.94397 (Simulation time: 0 hr 3 min 8 sec) 
CPU 0 runs /datasets/cs240c-wi22-a00-public/data/Assignment2-gz/lbm_94B.trace.gz
Heartbeat CPU 0 instructions: 1000000 cycles: 422411 heartbeat IPC: 2.36736 cumulative IPC: 2.36736 (Simulation time: 0 hr 3 min 8 sec) 
CPU 0 runs /datasets/cs240c-wi22-a00-public/data/Assignment2-gz/wrf_1212B.trace.gz
Heartbeat CPU 0 instructions: 1000001 cycles: 599253 heartbeat IPC: 1.66875 cumulative IPC: 1.66875 (Simulation time: 0 hr 3 min 10 sec) 
CPU 0 runs /datasets/cs240c-wi22-a00-public/data/Assignment2-gz/cactusADM_734B.trace.gz
Heartbeat CPU 0 instructions: 1000003 cycles: 592365 heartbeat IPC: 1.68815 cumulative IPC: 1.68815 (Simulation time: 0 hr 3 min 13 sec) 
CPU 0 runs /datasets/cs240c-wi22-a00-public/data/Assignment2-gz/gcc_56B.trace.gz
Heartbeat CPU 0 instructions: 1000003 cycles: 954224 heartbeat IPC: 1.04798 cumulative IPC: 1.04798 (Simulation time: 0 hr 3 min 16 sec) 
CPU 0 runs /datasets/cs240c-wi22-a00-public/data/Assignment2-gz/milc_360B.trace.gz
Heartbeat CPU 0 instructions: 1000001 cycles: 549889 heartbeat IPC: 1.81855 cumulative IPC: 1.81855 (Simulation time: 0 hr 3 min 15 sec) 
CPU 0 runs /datasets/cs240c-wi22-a00-public/data/Assignment2-gz/soplex_217B.trace.gz
Heartbeat CPU 0 instructions: 1000000 cycles: 437362 heartbeat IPC: 2.28644 cumulative IPC: 2.28644 (Simulation time: 0 hr 3 min 16 sec) 
CPU 0 runs /datasets/cs240c-wi22-a00-public/data/Assignment2-gz/gcc_39B.trace.gz
Heartbeat CPU 0 instructions: 1000000 cycles: 510392 heartbeat IPC: 1.95928 cumulative IPC: 1.95928 (Simulation time: 0 hr 3 min 20 sec) 
CPU 0 runs /datasets/cs240c-wi22-a00-public/data/Assignment2-gz/perlbench_53B.trace.gz
Heartbeat CPU 0 instructions: 1000000 cycles: 617122 heartbeat IPC: 1.62043 cumulative IPC: 1.62043 (Simulation time: 0 hr 3 min 22 sec) 
CPU 0 runs /datasets/cs240c-wi22-a00-public/data/Assignment2-gz/cactusADM_1495B.trace.gz
Heartbeat CPU 0 instructions: 1000003 cycles: 593354 heartbeat IPC: 1.68534 cumulative IPC: 1.68534 (Simulation time: 0 hr 3 min 24 sec) 
CPU 0 runs /datasets/cs240c-wi22-a00-public/data/Assignment2-gz/leslie3d_1116B.trace.gz
Heartbeat CPU 0 instructions: 1000001 cycles: 532936 heartbeat IPC: 1.8764 cumulative IPC: 1.8764 (Simulation time: 0 hr 3 min 29 sec) 
CPU 0 runs /datasets/cs240c-wi22-a00-public/data/Assignment2-gz/perlbench_135B.trace.gz
Heartbeat CPU 0 instructions: 1000000 cycles: 601490 heartbeat IPC: 1.66254 cumulative IPC: 1.66254 (Simulation time: 0 hr 3 min 28 sec) 
CPU 0 runs /datasets/cs240c-wi22-a00-public/data/Assignment2-gz/leslie3d_1186B.trace.gz
Heartbeat CPU 0 instructions: 1000002 cycles: 557793 heartbeat IPC: 1.79278 cumulative IPC: 1.79278 (Simulation time: 0 hr 3 min 31 sec) 
CPU 0 runs /datasets/cs240c-wi22-a00-public/data/Assignment2-gz/gcc_13B.trace.gz
Heartbeat CPU 0 instructions: 1000000 cycles: 644728 heartbeat IPC: 1.55104 cumulative IPC: 1.55104 (Simulation time: 0 hr 3 min 31 sec) 
CPU 0 runs /datasets/cs240c-wi22-a00-public/data/Assignment2-gz/mcf_46B.trace.gz
Heartbeat CPU 0 instructions: 1000002 cycles: 482122 heartbeat IPC: 2.07417 cumulative IPC: 2.07417 (Simulation time: 0 hr 3 min 31 sec) 
CPU 0 runs /datasets/cs240c-wi22-a00-public/data/Assignment2-gz/leslie3d_94B.trace.gz
Heartbeat CPU 0 instructions: 1000003 cycles: 592147 heartbeat IPC: 1.68877 cumulative IPC: 1.68877 (Simulation time: 0 hr 3 min 36 sec) 
CPU 0 runs /datasets/cs240c-wi22-a00-public/data/Assignment2-gz/omnetpp_340B.trace.gz
Heartbeat CPU 0 instructions: 1000001 cycles: 578280 heartbeat IPC: 1.72927 cumulative IPC: 1.72927 (Simulation time: 0 hr 3 min 37 sec) 
CPU 0 runs /datasets/cs240c-wi22-a00-public/data/Assignment2-gz/mcf_250B.trace.gz
Heartbeat CPU 0 instructions: 1000000 cycles: 526973 heartbeat IPC: 1.89763 cumulative IPC: 1.89763 (Simulation time: 0 hr 3 min 39 sec) 
Heartbeat CPU 0 instructions: 2000003 cycles: 666677 heartbeat IPC: 3.00001 cumulative IPC: 2.99996 (Simulation time: 0 hr 3 min 44 sec) 
CPU 0 runs /datasets/cs240c-wi22-a00-public/data/Assignment2-gz/astar_313B.trace.gz
Heartbeat CPU 0 instructions: 1000001 cycles: 678650 heartbeat IPC: 1.47352 cumulative IPC: 1.47352 (Simulation time: 0 hr 3 min 46 sec) 
CPU 0 runs /datasets/cs240c-wi22-a00-public/data/Assignment2-gz/GemsFDTD_109B.trace.gz
Heartbeat CPU 0 instructions: 1000002 cycles: 577063 heartbeat IPC: 1.73292 cumulative IPC: 1.73292 (Simulation time: 0 hr 3 min 47 sec) 
CPU 0 runs /datasets/cs240c-wi22-a00-public/data/Assignment2-gz/wrf_1228B.trace.gz
Heartbeat CPU 0 instructions: 1000003 cycles: 590333 heartbeat IPC: 1.69396 cumulative IPC: 1.69396 (Simulation time: 0 hr 3 min 47 sec) 
CPU 0 runs /datasets/cs240c-wi22-a00-public/data/Assignment2-gz/mcf_158B.trace.gz
Heartbeat CPU 0 instructions: 1000002 cycles: 496589 heartbeat IPC: 2.01374 cumulative IPC: 2.01374 (Simulation time: 0 hr 3 min 48 sec) 
CPU 0 runs /datasets/cs240c-wi22-a00-public/data/Assignment2-gz/cactusADM_1039B.trace.gz
Heartbeat CPU 0 instructions: 1000000 cycles: 595112 heartbeat IPC: 1.68036 cumulative IPC: 1.68036 (Simulation time: 0 hr 3 min 52 sec) 
CPU 0 runs /datasets/cs240c-wi22-a00-public/data/Assignment2-gz/GemsFDTD_712B.trace.gz
Heartbeat CPU 0 instructions: 1000003 cycles: 633083 heartbeat IPC: 1.57958 cumulative IPC: 1.57958 (Simulation time: 0 hr 4 min 0 sec) 
Heartbeat CPU 0 instructions: 2000001 cycles: 666677 heartbeat IPC: 3 cumulative IPC: 2.99995 (Simulation time: 0 hr 4 min 8 sec) 
Heartbeat CPU 0 instructions: 2000001 cycles: 746536 heartbeat IPC: 2.66571 cumulative IPC: 2.67904 (Simulation time: 0 hr 4 min 24 sec) 
Heartbeat CPU 0 instructions: 2000000 cycles: 630173 heartbeat IPC: 3.17201 cumulative IPC: 3.17373 (Simulation time: 0 hr 4 min 26 sec) 
Heartbeat CPU 0 instructions: 2000001 cycles: 928928 heartbeat IPC: 2.15304 cumulative IPC: 2.15302 (Simulation time: 0 hr 4 min 37 sec) 
Heartbeat CPU 0 instructions: 2000001 cycles: 1039679 heartbeat IPC: 1.92478 cumulative IPC: 1.92367 (Simulation time: 0 hr 4 min 50 sec) 
Heartbeat CPU 0 instructions: 2000001 cycles: 814374 heartbeat IPC: 2.45781 cumulative IPC: 2.45588 (Simulation time: 0 hr 5 min 10 sec) 
Heartbeat CPU 0 instructions: 2000001 cycles: 691941 heartbeat IPC: 2.82882 cumulative IPC: 2.89042 (Simulation time: 0 hr 5 min 30 sec) 
Heartbeat CPU 0 instructions: 2000000 cycles: 735301 heartbeat IPC: 2.51866 cumulative IPC: 2.71997 (Simulation time: 0 hr 5 min 33 sec) 
Heartbeat CPU 0 instructions: 2000001 cycles: 766759 heartbeat IPC: 2.60852 cumulative IPC: 2.60838 (Simulation time: 0 hr 5 min 38 sec) 
Heartbeat CPU 0 instructions: 2000003 cycles: 1059161 heartbeat IPC: 1.81564 cumulative IPC: 1.88829 (Simulation time: 0 hr 5 min 37 sec) 
Heartbeat CPU 0 instructions: 2000003 cycles: 861405 heartbeat IPC: 2.3124 cumulative IPC: 2.32179 (Simulation time: 0 hr 5 min 39 sec) 
Heartbeat CPU 0 instructions: 2000000 cycles: 821532 heartbeat IPC: 2.44815 cumulative IPC: 2.43448 (Simulation time: 0 hr 5 min 39 sec) 
Heartbeat CPU 0 instructions: 2000001 cycles: 1164382 heartbeat IPC: 1.70561 cumulative IPC: 1.71765 (Simulation time: 0 hr 5 min 43 sec) 
Heartbeat CPU 0 instructions: 2000003 cycles: 899728 heartbeat IPC: 2.20263 cumulative IPC: 2.2229 (Simulation time: 0 hr 5 min 47 sec) 
Heartbeat CPU 0 instructions: 2000002 cycles: 890222 heartbeat IPC: 2.01668 cumulative IPC: 2.24663 (Simulation time: 0 hr 5 min 49 sec) 
Heartbeat CPU 0 instructions: 2000001 cycles: 951159 heartbeat IPC: 1.98772 cumulative IPC: 2.1027 (Simulation time: 0 hr 5 min 53 sec) 
Heartbeat CPU 0 instructions: 3000001 cycles: 989047 heartbeat IPC: 3.10202 cumulative IPC: 3.03322 (Simulation time: 0 hr 5 min 53 sec) 
Heartbeat CPU 0 instructions: 2000002 cycles: 1133976 heartbeat IPC: 1.74157 cumulative IPC: 1.76371 (Simulation time: 0 hr 5 min 53 sec) 
Heartbeat CPU 0 instructions: 2000003 cycles: 785321 heartbeat IPC: 2.53112 cumulative IPC: 2.54673 (Simulation time: 0 hr 5 min 57 sec) 
Heartbeat CPU 0 instructions: 2000003 cycles: 1060018 heartbeat IPC: 1.88949 cumulative IPC: 1.88676 (Simulation time: 0 hr 5 min 58 sec) 
Heartbeat CPU 0 instructions: 2000002 cycles: 949743 heartbeat IPC: 2.10764 cumulative IPC: 2.10583 (Simulation time: 0 hr 5 min 59 sec) 
Heartbeat CPU 0 instructions: 2000001 cycles: 1135266 heartbeat IPC: 1.75923 cumulative IPC: 1.7617 (Simulation time: 0 hr 5 min 59 sec) 
Heartbeat CPU 0 instructions: 2000003 cycles: 830875 heartbeat IPC: 2.40744 cumulative IPC: 2.4071 (Simulation time: 0 hr 6 min 2 sec) 
Heartbeat CPU 0 instructions: 2000002 cycles: 842802 heartbeat IPC: 2.34487 cumulative IPC: 2.37304 (Simulation time: 0 hr 6 min 1 sec) 
Heartbeat CPU 0 instructions: 2000001 cycles: 721007 heartbeat IPC: 2.77085 cumulative IPC: 2.7739 (Simulation time: 0 hr 6 min 2 sec) 
Heartbeat CPU 0 instructions: 2000001 cycles: 782981 heartbeat IPC: 2.55437 cumulative IPC: 2.55434 (Simulation time: 0 hr 6 min 13 sec) 
Heartbeat CPU 0 instructions: 2000000 cycles: 1028660 heartbeat IPC: 1.94459 cumulative IPC: 1.94428 (Simulation time: 0 hr 6 min 13 sec) 
Heartbeat CPU 0 instructions: 3000000 cycles: 1000009 heartbeat IPC: 3.00001 cumulative IPC: 2.99997 (Simulation time: 0 hr 6 min 19 sec) 
Heartbeat CPU 0 instructions: 2000003 cycles: 797953 heartbeat IPC: 2.77323 cumulative IPC: 2.50642 (Simulation time: 0 hr 6 min 21 sec) 
Heartbeat CPU 0 instructions: 2000000 cycles: 882610 heartbeat IPC: 2.08386 cumulative IPC: 2.26601 (Simulation time: 0 hr 6 min 30 sec) 
Heartbeat CPU 0 instructions: 2000002 cycles: 1020757 heartbeat IPC: 1.95939 cumulative IPC: 1.95933 (Simulation time: 0 hr 6 min 30 sec) 
Heartbeat CPU 0 instructions: 2000000 cycles: 812709 heartbeat IPC: 2.56214 cumulative IPC: 2.46091 (Simulation time: 0 hr 6 min 30 sec) 
Heartbeat CPU 0 instructions: 2000001 cycles: 1898520 heartbeat IPC: 1.05899 cumulative IPC: 1.05345 (Simulation time: 0 hr 6 min 35 sec) 
Heartbeat CPU 0 instructions: 2000001 cycles: 1185295 heartbeat IPC: 1.68654 cumulative IPC: 1.68734 (Simulation time: 0 hr 6 min 37 sec) 
Heartbeat CPU 0 instructions: 2000003 cycles: 1099779 heartbeat IPC: 1.81855 cumulative IPC: 1.81855 (Simulation time: 0 hr 6 min 42 sec) 
Heartbeat CPU 0 instructions: 3000003 cycles: 945982 heartbeat IPC: 3.16648 cumulative IPC: 3.17131 (Simulation time: 0 hr 6 min 42 sec) 
Heartbeat CPU 0 instructions: 3000002 cycles: 1121180 heartbeat IPC: 2.6692 cumulative IPC: 2.67575 (Simulation time: 0 hr 6 min 54 sec) 
Heartbeat CPU 0 instructions: 2000000 cycles: 1198243 heartbeat IPC: 1.66948 cumulative IPC: 1.66911 (Simulation time: 0 hr 6 min 57 sec) 
Heartbeat CPU 0 instructions: 2000003 cycles: 1066398 heartbeat IPC: 1.87455 cumulative IPC: 1.87548 (Simulation time: 0 hr 7 min 4 sec) 
Heartbeat CPU 0 instructions: 2000000 cycles: 1186182 heartbeat IPC: 1.68682 cumulative IPC: 1.68608 (Simulation time: 0 hr 7 min 4 sec) 
Heartbeat CPU 0 instructions: 2000000 cycles: 1212073 heartbeat IPC: 1.63778 cumulative IPC: 1.65007 (Simulation time: 0 hr 7 min 13 sec) 
Heartbeat CPU 0 instructions: 2000002 cycles: 1206641 heartbeat IPC: 1.62735 cumulative IPC: 1.6575 (Simulation time: 0 hr 7 min 20 sec) 
Heartbeat CPU 0 instructions: 2000001 cycles: 1257217 heartbeat IPC: 1.63268 cumulative IPC: 1.59082 (Simulation time: 0 hr 7 min 21 sec) 
Heartbeat CPU 0 instructions: 2000001 cycles: 1255808 heartbeat IPC: 1.56572 cumulative IPC: 1.5926 (Simulation time: 0 hr 7 min 20 sec) 
Heartbeat CPU 0 instructions: 2000002 cycles: 1100530 heartbeat IPC: 1.96003 cumulative IPC: 1.81731 (Simulation time: 0 hr 7 min 24 sec) 
Heartbeat CPU 0 instructions: 2000002 cycles: 967657 heartbeat IPC: 2.05958 cumulative IPC: 2.06685 (Simulation time: 0 hr 7 min 25 sec) 
Heartbeat CPU 0 instructions: 3000003 cycles: 1393617 heartbeat IPC: 2.15198 cumulative IPC: 2.15267 (Simulation time: 0 hr 7 min 28 sec) 
Heartbeat CPU 0 instructions: 3000001 cycles: 1559976 heartbeat IPC: 1.92198 cumulative IPC: 1.92311 (Simulation time: 0 hr 7 min 30 sec) 
Heartbeat CPU 0 instructions: 2000000 cycles: 1204525 heartbeat IPC: 1.54623 cumulative IPC: 1.66041 (Simulation time: 0 hr 7 min 36 sec) 
Heartbeat CPU 0 instructions: 2000003 cycles: 1028936 heartbeat IPC: 1.99218 cumulative IPC: 1.94376 (Simulation time: 0 hr 7 min 35 sec) 
Heartbeat CPU 0 instructions: 2000002 cycles: 992562 heartbeat IPC: 2.01624 cumulative IPC: 2.01499 (Simulation time: 0 hr 7 min 43 sec) 
Heartbeat CPU 0 instructions: 2000003 cycles: 1154104 heartbeat IPC: 1.73298 cumulative IPC: 1.73295 (Simulation time: 0 hr 8 min 3 sec) 
Heartbeat CPU 0 instructions: 2000000 cycles: 1162467 heartbeat IPC: 1.71178 cumulative IPC: 1.72048 (Simulation time: 0 hr 8 min 5 sec) 
Heartbeat CPU 0 instructions: 4000000 cycles: 1290772 heartbeat IPC: 3.31427 cumulative IPC: 3.09892 (Simulation time: 0 hr 8 min 8 sec) 
Heartbeat CPU 0 instructions: 2000002 cycles: 1190036 heartbeat IPC: 1.68089 cumulative IPC: 1.68062 (Simulation time: 0 hr 8 min 13 sec) 
Heartbeat CPU 0 instructions: 2000003 cycles: 1269523 heartbeat IPC: 1.69241 cumulative IPC: 1.5754 (Simulation time: 0 hr 8 min 28 sec) 
Heartbeat CPU 0 instructions: 3000001 cycles: 1150170 heartbeat IPC: 2.60817 cumulative IPC: 2.60831 (Simulation time: 0 hr 8 min 33 sec) 
Heartbeat CPU 0 instructions: 3000003 cycles: 1221893 heartbeat IPC: 2.45388 cumulative IPC: 2.45521 (Simulation time: 0 hr 8 min 33 sec) 
Heartbeat CPU 0 instructions: 2000000 cycles: 1266011 heartbeat IPC: 1.57995 cumulative IPC: 1.57977 (Simulation time: 0 hr 8 min 35 sec) 
Heartbeat CPU 0 instructions: 3000003 cycles: 1181536 heartbeat IPC: 2.24098 cumulative IPC: 2.53907 (Simulation time: 0 hr 8 min 35 sec) 
Heartbeat CPU 0 instructions: 4000000 cycles: 1333342 heartbeat IPC: 3 cumulative IPC: 2.99998 (Simulation time: 0 hr 8 min 41 sec) 
Heartbeat CPU 0 instructions: 3000002 cycles: 1602081 heartbeat IPC: 1.84189 cumulative IPC: 1.87257 (Simulation time: 0 hr 8 min 49 sec) 
Heartbeat CPU 0 instructions: 3000000 cycles: 1081973 heartbeat IPC: 2.56389 cumulative IPC: 2.77271 (Simulation time: 0 hr 8 min 53 sec) 
Heartbeat CPU 0 instructions: 3000001 cycles: 1769211 heartbeat IPC: 1.57422 cumulative IPC: 1.69567 (Simulation time: 0 hr 8 min 55 sec) 
Heartbeat CPU 0 instructions: 3000003 cycles: 1294920 heartbeat IPC: 2.11244 cumulative IPC: 2.31675 (Simulation time: 0 hr 8 min 56 sec) 
Heartbeat CPU 0 instructions: 4000000 cycles: 1260334 heartbeat IPC: 3.18114 cumulative IPC: 3.17376 (Simulation time: 0 hr 9 min 5 sec) 
Heartbeat CPU 0 instructions: 3000002 cycles: 1175571 heartbeat IPC: 2.56246 cumulative IPC: 2.55195 (Simulation time: 0 hr 9 min 9 sec) 
Heartbeat CPU 0 instructions: 3000001 cycles: 1457648 heartbeat IPC: 1.97438 cumulative IPC: 2.05811 (Simulation time: 0 hr 9 min 10 sec) 
Heartbeat CPU 0 instructions: 3000002 cycles: 1314517 heartbeat IPC: 2.41086 cumulative IPC: 2.28221 (Simulation time: 0 hr 9 min 11 sec) 
Heartbeat CPU 0 instructions: 3000001 cycles: 1287146 heartbeat IPC: 2.34884 cumulative IPC: 2.33074 (Simulation time: 0 hr 9 min 12 sec) 
Heartbeat CPU 0 instructions: 3000002 cycles: 1589730 heartbeat IPC: 1.88782 cumulative IPC: 1.88711 (Simulation time: 0 hr 9 min 15 sec) 
Heartbeat CPU 0 instructions: 3000002 cycles: 1425613 heartbeat IPC: 2.10141 cumulative IPC: 2.10436 (Simulation time: 0 hr 9 min 17 sec) 
Heartbeat CPU 0 instructions: 3000001 cycles: 1722606 heartbeat IPC: 1.70259 cumulative IPC: 1.74155 (Simulation time: 0 hr 9 min 18 sec) 
Heartbeat CPU 0 instructions: 3000000 cycles: 1286935 heartbeat IPC: 2.19269 cumulative IPC: 2.33112 (Simulation time: 0 hr 9 min 21 sec) 
Heartbeat CPU 0 instructions: 3000000 cycles: 1079958 heartbeat IPC: 2.78589 cumulative IPC: 2.77789 (Simulation time: 0 hr 9 min 22 sec) 
Heartbeat CPU 0 instructions: 3000001 cycles: 1546521 heartbeat IPC: 1.93102 cumulative IPC: 1.93984 (Simulation time: 0 hr 9 min 32 sec) 
Heartbeat CPU 0 instructions: 4000000 cycles: 1487470 heartbeat IPC: 2.73007 cumulative IPC: 2.68913 (Simulation time: 0 hr 9 min 35 sec) 
Heartbeat CPU 0 instructions: 3000001 cycles: 1726618 heartbeat IPC: 1.77861 cumulative IPC: 1.7375 (Simulation time: 0 hr 9 min 35 sec) 
Heartbeat CPU 0 instructions: 3000003 cycles: 1252393 heartbeat IPC: 2.44146 cumulative IPC: 2.39542 (Simulation time: 0 hr 9 min 54 sec) 
Heartbeat CPU 0 instructions: 3000001 cycles: 1174398 heartbeat IPC: 2.55482 cumulative IPC: 2.5545 (Simulation time: 0 hr 9 min 59 sec) 
Heartbeat CPU 0 instructions: 3000000 cycles: 1248955 heartbeat IPC: 2.21728 cumulative IPC: 2.40201 (Simulation time: 0 hr 10 min 0 sec) 
Heartbeat CPU 0 instructions: 3000002 cycles: 1529819 heartbeat IPC: 1.9644 cumulative IPC: 1.96102 (Simulation time: 0 hr 10 min 7 sec) 
Heartbeat CPU 0 instructions: 3000000 cycles: 1360075 heartbeat IPC: 2.12832 cumulative IPC: 2.20576 (Simulation time: 0 hr 10 min 8 sec) 
Heartbeat CPU 0 instructions: 3000003 cycles: 1778084 heartbeat IPC: 1.68694 cumulative IPC: 1.68721 (Simulation time: 0 hr 10 min 25 sec) 
Heartbeat CPU 0 instructions: 5000000 cycles: 1592498 heartbeat IPC: 3.31427 cumulative IPC: 3.13972 (Simulation time: 0 hr 10 min 27 sec) 

Warmup complete CPU 0 instructions: 5000004 cycles: 1592499 (Simulation time: 0 hr 10 min 27 sec) 

Heartbeat CPU 0 instructions: 4000000 cycles: 2081696 heartbeat IPC: 1.91674 cumulative IPC: 1.92151 (Simulation time: 0 hr 10 min 31 sec) 
Heartbeat CPU 0 instructions: 3000001 cycles: 1649612 heartbeat IPC: 1.81873 cumulative IPC: 1.81861 (Simulation time: 0 hr 10 min 31 sec) 
Heartbeat CPU 0 instructions: 4000000 cycles: 1858062 heartbeat IPC: 2.1531 cumulative IPC: 2.15278 (Simulation time: 0 hr 10 min 34 sec) 
Heartbeat CPU 0 instructions: 3000000 cycles: 1211869 heartbeat IPC: 2.50526 cumulative IPC: 2.47552 (Simulation time: 0 hr 10 min 40 sec) 
Heartbeat CPU 0 instructions: 3000001 cycles: 1797630 heartbeat IPC: 1.66837 cumulative IPC: 1.66886 (Simulation time: 0 hr 10 min 43 sec) 
Heartbeat CPU 0 instructions: 5000001 cycles: 1666677 heartbeat IPC: 2.99999 cumulative IPC: 2.99998 (Simulation time: 0 hr 11 min 4 sec) 

Warmup complete CPU 0 instructions: 5000001 cycles: 1666677 (Simulation time: 0 hr 11 min 4 sec) 

Heartbeat CPU 0 instructions: 3000003 cycles: 1600517 heartbeat IPC: 1.87224 cumulative IPC: 1.8744 (Simulation time: 0 hr 11 min 6 sec) 
Heartbeat CPU 0 instructions: 3000001 cycles: 2885884 heartbeat IPC: 1.0128 cumulative IPC: 1.03954 (Simulation time: 0 hr 11 min 8 sec) 
Heartbeat CPU 0 instructions: 3000002 cycles: 1854530 heartbeat IPC: 1.54347 cumulative IPC: 1.61766 (Simulation time: 0 hr 11 min 16 sec) 
Heartbeat CPU 0 instructions: 3000003 cycles: 1779362 heartbeat IPC: 1.68583 cumulative IPC: 1.686 (Simulation time: 0 hr 11 min 25 sec) 
Heartbeat CPU 0 instructions: 5000000 cycles: 1576820 heartbeat IPC: 3.1597 cumulative IPC: 3.17094 (Simulation time: 0 hr 11 min 30 sec) 

Warmup complete CPU 0 instructions: 5000004 cycles: 1576821 (Simulation time: 0 hr 11 min 30 sec) 

Heartbeat CPU 0 instructions: 3000002 cycles: 1512616 heartbeat IPC: 2.06748 cumulative IPC: 1.98332 (Simulation time: 0 hr 11 min 36 sec) 
Heartbeat CPU 0 instructions: 3000000 cycles: 1836606 heartbeat IPC: 1.6012 cumulative IPC: 1.63345 (Simulation time: 0 hr 11 min 37 sec) 
Heartbeat CPU 0 instructions: 4000000 cycles: 1519954 heartbeat IPC: 2.95492 cumulative IPC: 2.63166 (Simulation time: 0 hr 11 min 39 sec) 
Heartbeat CPU 0 instructions: 3000000 cycles: 1735178 heartbeat IPC: 2.09222 cumulative IPC: 1.72893 (Simulation time: 0 hr 11 min 45 sec) 
Heartbeat CPU 0 instructions: 3000000 cycles: 1489286 heartbeat IPC: 2.01319 cumulative IPC: 2.01439 (Simulation time: 0 hr 11 min 46 sec) 
Heartbeat CPU 0 instructions: 3000000 cycles: 1708674 heartbeat IPC: 1.64434 cumulative IPC: 1.75575 (Simulation time: 0 hr 11 min 47 sec) 
Heartbeat CPU 0 instructions: 4000000 cycles: 1533552 heartbeat IPC: 2.60836 cumulative IPC: 2.60832 (Simulation time: 0 hr 11 min 49 sec) 
Heartbeat CPU 0 instructions: 4000000 cycles: 1526801 heartbeat IPC: 2.24806 cumulative IPC: 2.61986 (Simulation time: 0 hr 11 min 50 sec) 
Heartbeat CPU 0 instructions: 4000000 cycles: 1629601 heartbeat IPC: 2.45273 cumulative IPC: 2.45459 (Simulation time: 0 hr 11 min 52 sec) 
Heartbeat CPU 0 instructions: 3000000 cycles: 1851620 heartbeat IPC: 1.54537 cumulative IPC: 1.6202 (Simulation time: 0 hr 11 min 53 sec) 
Heartbeat CPU 0 instructions: 3000002 cycles: 1912368 heartbeat IPC: 1.52309 cumulative IPC: 1.56874 (Simulation time: 0 hr 12 min 1 sec) 
Heartbeat CPU 0 instructions: 3000000 cycles: 1484766 heartbeat IPC: 1.93382 cumulative IPC: 2.02052 (Simulation time: 0 hr 12 min 3 sec) 
Heartbeat CPU 0 instructions: 4000000 cycles: 2334140 heartbeat IPC: 1.77013 cumulative IPC: 1.71369 (Simulation time: 0 hr 12 min 4 sec) 
Heartbeat CPU 0 instructions: 5000003 cycles: 1860159 heartbeat IPC: 2.68321 cumulative IPC: 2.68794 (Simulation time: 0 hr 12 min 6 sec) 

Warmup complete CPU 0 instructions: 5000003 cycles: 1860159 (Simulation time: 0 hr 12 min 6 sec) 

Heartbeat CPU 0 instructions: 3000003 cycles: 1662911 heartbeat IPC: 1.28156 cumulative IPC: 1.80407 (Simulation time: 0 hr 12 min 7 sec) 
Heartbeat CPU 0 instructions: 4000000 cycles: 1633292 heartbeat IPC: 2.95532 cumulative IPC: 2.44904 (Simulation time: 0 hr 12 min 9 sec) 
Heartbeat CPU 0 instructions: 3000000 cycles: 1730667 heartbeat IPC: 1.73441 cumulative IPC: 1.73344 (Simulation time: 0 hr 12 min 11 sec) 
Heartbeat CPU 0 instructions: 4000000 cycles: 1753058 heartbeat IPC: 2.28028 cumulative IPC: 2.28173 (Simulation time: 0 hr 12 min 20 sec) 
Heartbeat CPU 0 instructions: 4000000 cycles: 1928242 heartbeat IPC: 2.12497 cumulative IPC: 2.07443 (Simulation time: 0 hr 12 min 26 sec) 
Heartbeat CPU 0 instructions: 4000000 cycles: 1565781 heartbeat IPC: 2.56272 cumulative IPC: 2.55464 (Simulation time: 0 hr 12 min 27 sec) 
Heartbeat CPU 0 instructions: 4000000 cycles: 1685678 heartbeat IPC: 2.50921 cumulative IPC: 2.37293 (Simulation time: 0 hr 12 min 31 sec) 
Heartbeat CPU 0 instructions: 4000000 cycles: 2119462 heartbeat IPC: 1.88774 cumulative IPC: 1.88727 (Simulation time: 0 hr 12 min 31 sec) 
Heartbeat CPU 0 instructions: 4000000 cycles: 2291843 heartbeat IPC: 1.75674 cumulative IPC: 1.74532 (Simulation time: 0 hr 12 min 32 sec) 
Heartbeat CPU 0 instructions: 4000000 cycles: 1895811 heartbeat IPC: 2.12676 cumulative IPC: 2.10992 (Simulation time: 0 hr 12 min 34 sec) 
Heartbeat CPU 0 instructions: 4000000 cycles: 2087846 heartbeat IPC: 2.0586 cumulative IPC: 1.91585 (Simulation time: 0 hr 12 min 38 sec) 
Heartbeat CPU 0 instructions: 4000000 cycles: 1744228 heartbeat IPC: 2.18678 cumulative IPC: 2.29328 (Simulation time: 0 hr 12 min 44 sec) 
Heartbeat CPU 0 instructions: 4000000 cycles: 2064469 heartbeat IPC: 1.93069 cumulative IPC: 1.93754 (Simulation time: 0 hr 12 min 44 sec) 
Heartbeat CPU 0 instructions: 3000003 cycles: 1785063 heartbeat IPC: 1.6806 cumulative IPC: 1.68061 (Simulation time: 0 hr 12 min 56 sec) 
Heartbeat CPU 0 instructions: 4000000 cycles: 1441419 heartbeat IPC: 2.76655 cumulative IPC: 2.77504 (Simulation time: 0 hr 12 min 59 sec) 
Heartbeat CPU 0 instructions: 4000000 cycles: 1637577 heartbeat IPC: 2.59615 cumulative IPC: 2.44263 (Simulation time: 0 hr 13 min 14 sec) 
Heartbeat CPU 0 instructions: 5000000 cycles: 2602077 heartbeat IPC: 1.92167 cumulative IPC: 1.92154 (Simulation time: 0 hr 13 min 21 sec) 

Warmup complete CPU 0 instructions: 5000001 cycles: 2602078 (Simulation time: 0 hr 13 min 21 sec) 

Heartbeat CPU 0 instructions: 3000001 cycles: 1760249 heartbeat IPC: 1.67285 cumulative IPC: 1.7043 (Simulation time: 0 hr 13 min 30 sec) 
Heartbeat CPU 0 instructions: 4000000 cycles: 1722588 heartbeat IPC: 2.75852 cumulative IPC: 2.32209 (Simulation time: 0 hr 13 min 35 sec) 
Heartbeat CPU 0 instructions: 4000000 cycles: 2306048 heartbeat IPC: 1.72583 cumulative IPC: 1.73457 (Simulation time: 0 hr 13 min 38 sec) 
Heartbeat CPU 0 instructions: 6000001 cycles: 5165586 heartbeat IPC: 0.27987 cumulative IPC: 0.279869 (Simulation time: 0 hr 13 min 39 sec) 
Heartbeat CPU 0 instructions: 3000003 cycles: 1946924 heartbeat IPC: 1.47623 cumulative IPC: 1.54089 (Simulation time: 0 hr 13 min 47 sec) 
Heartbeat CPU 0 instructions: 4000000 cycles: 1570639 heartbeat IPC: 2.52371 cumulative IPC: 2.54673 (Simulation time: 0 hr 13 min 51 sec) 
Heartbeat CPU 0 instructions: 3000000 cycles: 1898532 heartbeat IPC: 1.58098 cumulative IPC: 1.58017 (Simulation time: 0 hr 13 min 58 sec) 
Heartbeat CPU 0 instructions: 5000003 cycles: 2322491 heartbeat IPC: 2.15319 cumulative IPC: 2.15286 (Simulation time: 0 hr 14 min 0 sec) 

Warmup complete CPU 0 instructions: 5000003 cycles: 2322491 (Simulation time: 0 hr 14 min 0 sec) 

Heartbeat CPU 0 instructions: 4000000 cycles: 1686682 heartbeat IPC: 2.28453 cumulative IPC: 2.37152 (Simulation time: 0 hr 14 min 3 sec) 
Heartbeat CPU 0 instructions: 4000000 cycles: 2038994 heartbeat IPC: 1.96396 cumulative IPC: 1.96175 (Simulation time: 0 hr 14 min 10 sec) 
Heartbeat CPU 0 instructions: 4000000 cycles: 2199464 heartbeat IPC: 1.81867 cumulative IPC: 1.81862 (Simulation time: 0 hr 14 min 25 sec) 
Heartbeat CPU 0 instructions: 4000000 cycles: 2396228 heartbeat IPC: 1.67057 cumulative IPC: 1.66929 (Simulation time: 0 hr 14 min 44 sec) 
Heartbeat CPU 0 instructions: 4000000 cycles: 2370621 heartbeat IPC: 1.68765 cumulative IPC: 1.68732 (Simulation time: 0 hr 14 min 51 sec) 
Heartbeat CPU 0 instructions: 5000001 cycles: 1916947 heartbeat IPC: 2.60828 cumulative IPC: 2.60831 (Simulation time: 0 hr 14 min 51 sec) 

Warmup complete CPU 0 instructions: 5000001 cycles: 1916947 (Simulation time: 0 hr 14 min 51 sec) 

Heartbeat CPU 0 instructions: 6000002 cycles: 3664216 heartbeat IPC: 0.500616 cumulative IPC: 0.500616 (Simulation time: 0 hr 14 min 52 sec) 
Heartbeat CPU 0 instructions: 5000001 cycles: 1897209 heartbeat IPC: 2.65073 cumulative IPC: 2.63545 (Simulation time: 0 hr 14 min 52 sec) 

Warmup complete CPU 0 instructions: 5000001 cycles: 1897209 (Simulation time: 0 hr 14 min 52 sec) 

Heartbeat CPU 0 instructions: 4000000 cycles: 1632043 heartbeat IPC: 2.37997 cumulative IPC: 2.45092 (Simulation time: 0 hr 15 min 5 sec) 
Heartbeat CPU 0 instructions: 4000000 cycles: 2502061 heartbeat IPC: 1.54432 cumulative IPC: 1.59868 (Simulation time: 0 hr 15 min 5 sec) 
Heartbeat CPU 0 instructions: 5000003 cycles: 1865235 heartbeat IPC: 2.95479 cumulative IPC: 2.68063 (Simulation time: 0 hr 15 min 7 sec) 

Warmup complete CPU 0 instructions: 5000003 cycles: 1865235 (Simulation time: 0 hr 15 min 7 sec) 

Heartbeat CPU 0 instructions: 5000002 cycles: 2893179 heartbeat IPC: 1.78879 cumulative IPC: 1.7282 (Simulation time: 0 hr 15 min 10 sec) 

Warmup complete CPU 0 instructions: 5000002 cycles: 2893179 (Simulation time: 0 hr 15 min 10 sec) 

Heartbeat CPU 0 instructions: 4000000 cycles: 2133411 heartbeat IPC: 1.87654 cumulative IPC: 1.87493 (Simulation time: 0 hr 15 min 12 sec) 
Heartbeat CPU 0 instructions: 5000001 cycles: 2037319 heartbeat IPC: 2.45268 cumulative IPC: 2.45421 (Simulation time: 0 hr 15 min 12 sec) 

Warmup complete CPU 0 instructions: 5000001 cycles: 2037319 (Simulation time: 0 hr 15 min 12 sec) 

Heartbeat CPU 0 instructions: 5000002 cycles: 2174890 heartbeat IPC: 2.37062 cumulative IPC: 2.29897 (Simulation time: 0 hr 15 min 18 sec) 

Warmup complete CPU 0 instructions: 5000002 cycles: 2174890 (Simulation time: 0 hr 15 min 18 sec) 

Heartbeat CPU 0 instructions: 6000003 cycles: 2440238 heartbeat IPC: 1.7239 cumulative IPC: 1.7239 (Simulation time: 0 hr 15 min 20 sec) 
Heartbeat CPU 0 instructions: 6000001 cycles: 4802736 heartbeat IPC: 0.30999 cumulative IPC: 0.309989 (Simulation time: 0 hr 15 min 27 sec) 
Heartbeat CPU 0 instructions: 5000000 cycles: 1987094 heartbeat IPC: 2.82644 cumulative IPC: 2.51624 (Simulation time: 0 hr 15 min 29 sec) 

Warmup complete CPU 0 instructions: 5000004 cycles: 1987095 (Simulation time: 0 hr 15 min 29 sec) 

Heartbeat CPU 0 instructions: 4000000 cycles: 3848630 heartbeat IPC: 1.03869 cumulative IPC: 1.03933 (Simulation time: 0 hr 15 min 37 sec) 
Heartbeat CPU 0 instructions: 5000000 cycles: 2346967 heartbeat IPC: 2.21653 cumulative IPC: 2.13041 (Simulation time: 0 hr 15 min 41 sec) 

Warmup complete CPU 0 instructions: 5000003 cycles: 2346968 (Simulation time: 0 hr 15 min 41 sec) 

Heartbeat CPU 0 instructions: 4000000 cycles: 2212947 heartbeat IPC: 2.09306 cumulative IPC: 1.80754 (Simulation time: 0 hr 15 min 43 sec) 
Heartbeat CPU 0 instructions: 5000000 cycles: 2651055 heartbeat IPC: 1.88114 cumulative IPC: 1.88604 (Simulation time: 0 hr 15 min 51 sec) 

Warmup complete CPU 0 instructions: 5000001 cycles: 2651058 (Simulation time: 0 hr 15 min 51 sec) 

Heartbeat CPU 0 instructions: 4000000 cycles: 2452455 heartbeat IPC: 1.66435 cumulative IPC: 1.63102 (Simulation time: 0 hr 15 min 54 sec) 
Heartbeat CPU 0 instructions: 5000001 cycles: 2104126 heartbeat IPC: 2.38979 cumulative IPC: 2.37628 (Simulation time: 0 hr 15 min 55 sec) 

Warmup complete CPU 0 instructions: 5000001 cycles: 2104126 (Simulation time: 0 hr 15 min 55 sec) 

Heartbeat CPU 0 instructions: 5000000 cycles: 2865898 heartbeat IPC: 1.74199 cumulative IPC: 1.74465 (Simulation time: 0 hr 15 min 56 sec) 

Warmup complete CPU 0 instructions: 5000002 cycles: 2865899 (Simulation time: 0 hr 15 min 56 sec) 

Heartbeat CPU 0 instructions: 4000000 cycles: 2372043 heartbeat IPC: 1.68724 cumulative IPC: 1.68631 (Simulation time: 0 hr 15 min 58 sec) 
Heartbeat CPU 0 instructions: 5000000 cycles: 1960940 heartbeat IPC: 2.53063 cumulative IPC: 2.5498 (Simulation time: 0 hr 15 min 58 sec) 

Warmup complete CPU 0 instructions: 5000004 cycles: 1960941 (Simulation time: 0 hr 15 min 58 sec) 

Heartbeat CPU 0 instructions: 5000000 cycles: 2425411 heartbeat IPC: 2.01139 cumulative IPC: 2.06151 (Simulation time: 0 hr 15 min 59 sec) 

Warmup complete CPU 0 instructions: 5000004 cycles: 2425412 (Simulation time: 0 hr 15 min 59 sec) 

Heartbeat CPU 0 instructions: 5000001 cycles: 2582394 heartbeat IPC: 1.93078 cumulative IPC: 1.93619 (Simulation time: 0 hr 16 min 4 sec) 

Warmup complete CPU 0 instructions: 5000001 cycles: 2582394 (Simulation time: 0 hr 16 min 4 sec) 

Heartbeat CPU 0 instructions: 4000000 cycles: 2319463 heartbeat IPC: 1.63723 cumulative IPC: 1.72454 (Simulation time: 0 hr 16 min 10 sec) 
Heartbeat CPU 0 instructions: 4000000 cycles: 1984402 heartbeat IPC: 2.01973 cumulative IPC: 2.01572 (Simulation time: 0 hr 16 min 13 sec) 
Heartbeat CPU 0 instructions: 4000000 cycles: 2497342 heartbeat IPC: 1.51346 cumulative IPC: 1.6017 (Simulation time: 0 hr 16 min 13 sec) 
Heartbeat CPU 0 instructions: 4000000 cycles: 2007095 heartbeat IPC: 2.02233 cumulative IPC: 1.99293 (Simulation time: 0 hr 16 min 13 sec) 
Heartbeat CPU 0 instructions: 5000001 cycles: 2571024 heartbeat IPC: 2.06963 cumulative IPC: 1.94475 (Simulation time: 0 hr 16 min 16 sec) 

Warmup complete CPU 0 instructions: 5000001 cycles: 2571024 (Simulation time: 0 hr 16 min 16 sec) 

Heartbeat CPU 0 instructions: 4000000 cycles: 2528843 heartbeat IPC: 1.62212 cumulative IPC: 1.58175 (Simulation time: 0 hr 16 min 22 sec) 
Heartbeat CPU 0 instructions: 6000001 cycles: 3075679 heartbeat IPC: 2.11148 cumulative IPC: 2.11148 (Simulation time: 0 hr 16 min 23 sec) 
Heartbeat CPU 0 instructions: 5000000 cycles: 2038924 heartbeat IPC: 2.49161 cumulative IPC: 2.45227 (Simulation time: 0 hr 16 min 26 sec) 

Warmup complete CPU 0 instructions: 5000001 cycles: 2038926 (Simulation time: 0 hr 16 min 26 sec) 

Heartbeat CPU 0 instructions: 5000000 cycles: 1803502 heartbeat IPC: 2.7618 cumulative IPC: 2.77238 (Simulation time: 0 hr 16 min 29 sec) 

Warmup complete CPU 0 instructions: 5000004 cycles: 1803503 (Simulation time: 0 hr 16 min 29 sec) 

Heartbeat CPU 0 instructions: 5000000 cycles: 2159515 heartbeat IPC: 2.40797 cumulative IPC: 2.31533 (Simulation time: 0 hr 16 min 29 sec) 

Warmup complete CPU 0 instructions: 5000001 cycles: 2159516 (Simulation time: 0 hr 16 min 29 sec) 

Heartbeat CPU 0 instructions: 4000000 cycles: 1995873 heartbeat IPC: 1.95654 cumulative IPC: 2.00414 (Simulation time: 0 hr 16 min 30 sec) 
Heartbeat CPU 0 instructions: 4000000 cycles: 2380257 heartbeat IPC: 1.68012 cumulative IPC: 1.68049 (Simulation time: 0 hr 16 min 45 sec) 
Heartbeat CPU 0 instructions: 7000002 cycles: 8740163 heartbeat IPC: 0.279754 cumulative IPC: 0.279811 (Simulation time: 0 hr 16 min 50 sec) 
Heartbeat CPU 0 instructions: 4000000 cycles: 2307197 heartbeat IPC: 1.73452 cumulative IPC: 1.73371 (Simulation time: 0 hr 17 min 6 sec) 
Heartbeat CPU 0 instructions: 5000001 cycles: 2171592 heartbeat IPC: 2.22715 cumulative IPC: 2.30246 (Simulation time: 0 hr 17 min 13 sec) 

Warmup complete CPU 0 instructions: 5000001 cycles: 2171592 (Simulation time: 0 hr 17 min 13 sec) 

Heartbeat CPU 0 instructions: 5000001 cycles: 2071692 heartbeat IPC: 2.59734 cumulative IPC: 2.41349 (Simulation time: 0 hr 17 min 14 sec) 

Warmup complete CPU 0 instructions: 5000001 cycles: 2071692 (Simulation time: 0 hr 17 min 14 sec) 

Heartbeat CPU 0 instructions: 5000002 cycles: 1962096 heartbeat IPC: 2.55456 cumulative IPC: 2.5483 (Simulation time: 0 hr 17 min 49 sec) 

Warmup complete CPU 0 instructions: 5000002 cycles: 1962096 (Simulation time: 0 hr 17 min 49 sec) 

Heartbeat CPU 0 instructions: 4000000 cycles: 2443121 heartbeat IPC: 1.2817 cumulative IPC: 1.63725 (Simulation time: 0 hr 17 min 53 sec) 
Heartbeat CPU 0 instructions: 5000003 cycles: 2548012 heartbeat IPC: 1.96457 cumulative IPC: 1.96232 (Simulation time: 0 hr 17 min 59 sec) 

Warmup complete CPU 0 instructions: 5000003 cycles: 2548012 (Simulation time: 0 hr 17 min 59 sec) 

Heartbeat CPU 0 instructions: 6000001 cycles: 3243967 heartbeat IPC: 1.08521 cumulative IPC: 1.08521 (Simulation time: 0 hr 18 min 0 sec) 
Heartbeat CPU 0 instructions: 5000003 cycles: 2884306 heartbeat IPC: 1.72934 cumulative IPC: 1.73352 (Simulation time: 0 hr 18 min 1 sec) 

Warmup complete CPU 0 instructions: 5000003 cycles: 2884306 (Simulation time: 0 hr 18 min 1 sec) 

Heartbeat CPU 0 instructions: 5000002 cycles: 2749347 heartbeat IPC: 1.81857 cumulative IPC: 1.81861 (Simulation time: 0 hr 18 min 12 sec) 

Warmup complete CPU 0 instructions: 5000002 cycles: 2749347 (Simulation time: 0 hr 18 min 12 sec) 

Heartbeat CPU 0 instructions: 6000000 cycles: 3557754 heartbeat IPC: 0.723135 cumulative IPC: 0.723135 (Simulation time: 0 hr 18 min 20 sec) 
Heartbeat CPU 0 instructions: 7000001 cycles: 5832948 heartbeat IPC: 0.461098 cumulative IPC: 0.480046 (Simulation time: 0 hr 18 min 29 sec) 
Heartbeat CPU 0 instructions: 7000000 cycles: 2988311 heartbeat IPC: 1.82457 cumulative IPC: 1.77281 (Simulation time: 0 hr 18 min 32 sec) 
Heartbeat CPU 0 instructions: 6000000 cycles: 3833180 heartbeat IPC: 0.521857 cumulative IPC: 0.521857 (Simulation time: 0 hr 18 min 34 sec) 
Heartbeat CPU 0 instructions: 6000001 cycles: 2984440 heartbeat IPC: 1.5687 cumulative IPC: 1.56869 (Simulation time: 0 hr 18 min 36 sec) 
Heartbeat CPU 0 instructions: 5000000 cycles: 2995748 heartbeat IPC: 1.668 cumulative IPC: 1.66903 (Simulation time: 0 hr 18 min 35 sec) 

Warmup complete CPU 0 instructions: 5000001 cycles: 2995749 (Simulation time: 0 hr 18 min 35 sec) 

Heartbeat CPU 0 instructions: 5000002 cycles: 3062652 heartbeat IPC: 1.78384 cumulative IPC: 1.63257 (Simulation time: 0 hr 18 min 36 sec) 

Warmup complete CPU 0 instructions: 5000002 cycles: 3062652 (Simulation time: 0 hr 18 min 36 sec) 

Heartbeat CPU 0 instructions: 6000002 cycles: 3559751 heartbeat IPC: 0.601489 cumulative IPC: 0.601489 (Simulation time: 0 hr 18 min 36 sec) 
Heartbeat CPU 0 instructions: 4000000 cycles: 2381490 heartbeat IPC: 1.60968 cumulative IPC: 1.67962 (Simulation time: 0 hr 18 min 39 sec) 
Heartbeat CPU 0 instructions: 6000000 cycles: 5768010 heartbeat IPC: 0.347846 cumulative IPC: 0.347846 (Simulation time: 0 hr 18 min 50 sec) 
Heartbeat CPU 0 instructions: 4000000 cycles: 2624809 heartbeat IPC: 1.47517 cumulative IPC: 1.52392 (Simulation time: 0 hr 18 min 58 sec) 
Heartbeat CPU 0 instructions: 6000001 cycles: 3899925 heartbeat IPC: 0.67819 cumulative IPC: 0.678188 (Simulation time: 0 hr 18 min 58 sec) 
Heartbeat CPU 0 instructions: 6000000 cycles: 2905684 heartbeat IPC: 1.15159 cumulative IPC: 1.15159 (Simulation time: 0 hr 18 min 59 sec) 
Heartbeat CPU 0 instructions: 4000000 cycles: 2530763 heartbeat IPC: 1.5817 cumulative IPC: 1.58055 (Simulation time: 0 hr 19 min 4 sec) 
Heartbeat CPU 0 instructions: 5000001 cycles: 2666043 heartbeat IPC: 1.87747 cumulative IPC: 1.87544 (Simulation time: 0 hr 19 min 6 sec) 

Warmup complete CPU 0 instructions: 5000001 cycles: 2666043 (Simulation time: 0 hr 19 min 6 sec) 

Heartbeat CPU 0 instructions: 6000002 cycles: 3131508 heartbeat IPC: 0.973349 cumulative IPC: 0.973349 (Simulation time: 0 hr 19 min 8 sec) 
Heartbeat CPU 0 instructions: 7000001 cycles: 7987048 heartbeat IPC: 0.31404 cumulative IPC: 0.312001 (Simulation time: 0 hr 19 min 12 sec) 
Heartbeat CPU 0 instructions: 7000001 cycles: 3552712 heartbeat IPC: 2.09629 cumulative IPC: 2.10386 (Simulation time: 0 hr 19 min 21 sec) 
Heartbeat CPU 0 instructions: 6000002 cycles: 4097168 heartbeat IPC: 0.448042 cumulative IPC: 0.448042 (Simulation time: 0 hr 19 min 20 sec) 
Heartbeat CPU 0 instructions: 5000000 cycles: 2963700 heartbeat IPC: 1.68612 cumulative IPC: 1.68708 (Simulation time: 0 hr 19 min 23 sec) 

Warmup complete CPU 0 instructions: 5000004 cycles: 2963701 (Simulation time: 0 hr 19 min 23 sec) 

Heartbeat CPU 0 instructions: 5000000 cycles: 3058482 heartbeat IPC: 1.65009 cumulative IPC: 1.6348 (Simulation time: 0 hr 19 min 28 sec) 

Warmup complete CPU 0 instructions: 5000002 cycles: 3058483 (Simulation time: 0 hr 19 min 28 sec) 

Heartbeat CPU 0 instructions: 5000001 cycles: 2022321 heartbeat IPC: 2.56228 cumulative IPC: 2.47241 (Simulation time: 0 hr 19 min 30 sec) 

Warmup complete CPU 0 instructions: 5000001 cycles: 2022321 (Simulation time: 0 hr 19 min 30 sec) 

Heartbeat CPU 0 instructions: 5000002 cycles: 2691200 heartbeat IPC: 2.09095 cumulative IPC: 1.85791 (Simulation time: 0 hr 19 min 34 sec) 

Warmup complete CPU 0 instructions: 5000002 cycles: 2691200 (Simulation time: 0 hr 19 min 35 sec) 

Heartbeat CPU 0 instructions: 6000000 cycles: 4821906 heartbeat IPC: 0.460649 cumulative IPC: 0.460649 (Simulation time: 0 hr 19 min 37 sec) 
Heartbeat CPU 0 instructions: 6000002 cycles: 5717741 heartbeat IPC: 0.350651 cumulative IPC: 0.350651 (Simulation time: 0 hr 19 min 39 sec) 
Heartbeat CPU 0 instructions: 6000000 cycles: 4586232 heartbeat IPC: 0.359359 cumulative IPC: 0.359358 (Simulation time: 0 hr 19 min 48 sec) 
Heartbeat CPU 0 instructions: 6000000 cycles: 3438294 heartbeat IPC: 1.15304 cumulative IPC: 1.15304 (Simulation time: 0 hr 19 min 56 sec) 
Heartbeat CPU 0 instructions: 5000002 cycles: 4738254 heartbeat IPC: 1.12407 cumulative IPC: 1.05524 (Simulation time: 0 hr 20 min 6 sec) 

Warmup complete CPU 0 instructions: 5000002 cycles: 4738254 (Simulation time: 0 hr 20 min 6 sec) 

Heartbeat CPU 0 instructions: 6000000 cycles: 4834324 heartbeat IPC: 0.357731 cumulative IPC: 0.35773 (Simulation time: 0 hr 20 min 6 sec) 
Heartbeat CPU 0 instructions: 6000002 cycles: 3792356 heartbeat IPC: 0.546027 cumulative IPC: 0.546025 (Simulation time: 0 hr 20 min 8 sec) 
Heartbeat CPU 0 instructions: 6000000 cycles: 4593340 heartbeat IPC: 0.383694 cumulative IPC: 0.383692 (Simulation time: 0 hr 20 min 9 sec) 
Heartbeat CPU 0 instructions: 5000000 cycles: 2964991 heartbeat IPC: 1.68649 cumulative IPC: 1.68635 (Simulation time: 0 hr 20 min 14 sec) 

Warmup complete CPU 0 instructions: 5000004 cycles: 2964992 (Simulation time: 0 hr 20 min 14 sec) 

Heartbeat CPU 0 instructions: 8000000 cycles: 12187192 heartbeat IPC: 0.290104 cumulative IPC: 0.28316 (Simulation time: 0 hr 20 min 14 sec) 
Heartbeat CPU 0 instructions: 5000002 cycles: 2478042 heartbeat IPC: 2.02577 cumulative IPC: 2.01772 (Simulation time: 0 hr 20 min 24 sec) 

Warmup complete CPU 0 instructions: 5000002 cycles: 2478042 (Simulation time: 0 hr 20 min 24 sec) 

Heartbeat CPU 0 instructions: 5000002 cycles: 2498067 heartbeat IPC: 2.03678 cumulative IPC: 2.00155 (Simulation time: 0 hr 20 min 26 sec) 

Warmup complete CPU 0 instructions: 5000002 cycles: 2498067 (Simulation time: 0 hr 20 min 26 sec) 

Heartbeat CPU 0 instructions: 5000001 cycles: 3085110 heartbeat IPC: 1.70135 cumulative IPC: 1.62069 (Simulation time: 0 hr 20 min 29 sec) 

Warmup complete CPU 0 instructions: 5000001 cycles: 3085110 (Simulation time: 0 hr 20 min 29 sec) 

Heartbeat CPU 0 instructions: 5000001 cycles: 3158592 heartbeat IPC: 1.58794 cumulative IPC: 1.58298 (Simulation time: 0 hr 20 min 34 sec) 

Warmup complete CPU 0 instructions: 5000001 cycles: 3158592 (Simulation time: 0 hr 20 min 34 sec) 

Heartbeat CPU 0 instructions: 5000000 cycles: 3014423 heartbeat IPC: 1.43893 cumulative IPC: 1.65869 (Simulation time: 0 hr 20 min 50 sec) 

Warmup complete CPU 0 instructions: 5000004 cycles: 3014425 (Simulation time: 0 hr 20 min 50 sec) 

Heartbeat CPU 0 instructions: 5000001 cycles: 2975033 heartbeat IPC: 1.68131 cumulative IPC: 1.68065 (Simulation time: 0 hr 20 min 54 sec) 

Warmup complete CPU 0 instructions: 5000001 cycles: 2975033 (Simulation time: 0 hr 20 min 54 sec) 

Heartbeat CPU 0 instructions: 6000003 cycles: 4216266 heartbeat IPC: 0.612044 cumulative IPC: 0.612044 (Simulation time: 0 hr 20 min 55 sec) 
Heartbeat CPU 0 instructions: 5000000 cycles: 2478589 heartbeat IPC: 2.07161 cumulative IPC: 2.01728 (Simulation time: 0 hr 21 min 3 sec) 

Warmup complete CPU 0 instructions: 5000004 cycles: 2478590 (Simulation time: 0 hr 21 min 3 sec) 

Heartbeat CPU 0 instructions: 6000000 cycles: 3787190 heartbeat IPC: 0.582921 cumulative IPC: 0.582921 (Simulation time: 0 hr 21 min 3 sec) 
Heartbeat CPU 0 instructions: 7000002 cycles: 4763587 heartbeat IPC: 0.829304 cumulative IPC: 0.772589 (Simulation time: 0 hr 21 min 5 sec) 
Heartbeat CPU 0 instructions: 6000000 cycles: 3507343 heartbeat IPC: 0.741934 cumulative IPC: 0.741934 (Simulation time: 0 hr 21 min 19 sec) 
Heartbeat CPU 0 instructions: 7000000 cycles: 3542426 heartbeat IPC: 1.79216 cumulative IPC: 1.673 (Simulation time: 0 hr 21 min 25 sec) 
Heartbeat CPU 0 instructions: 8000000 cycles: 3535767 heartbeat IPC: 1.82663 cumulative IPC: 1.79039 (Simulation time: 0 hr 21 min 40 sec) 
Heartbeat CPU 0 instructions: 8000000 cycles: 8115146 heartbeat IPC: 0.438174 cumulative IPC: 0.465227 (Simulation time: 0 hr 21 min 51 sec) 
Heartbeat CPU 0 instructions: 7000001 cycles: 4166477 heartbeat IPC: 1.084 cumulative IPC: 1.08461 (Simulation time: 0 hr 21 min 52 sec) 
Heartbeat CPU 0 instructions: 8000000 cycles: 4026025 heartbeat IPC: 2.11276 cumulative IPC: 2.10682 (Simulation time: 0 hr 22 min 5 sec) 
Heartbeat CPU 0 instructions: 7000002 cycles: 5760181 heartbeat IPC: 0.518942 cumulative IPC: 0.520395 (Simulation time: 0 hr 22 min 7 sec) 
Heartbeat CPU 0 instructions: 5000000 cycles: 2884156 heartbeat IPC: 1.73323 cumulative IPC: 1.73361 (Simulation time: 0 hr 22 min 9 sec) 

Warmup complete CPU 0 instructions: 5000004 cycles: 2884157 (Simulation time: 0 hr 22 min 9 sec) 

Heartbeat CPU 0 instructions: 7000001 cycles: 5480943 heartbeat IPC: 0.632504 cumulative IPC: 0.65455 (Simulation time: 0 hr 22 min 17 sec) 
Heartbeat CPU 0 instructions: 7000000 cycles: 5074512 heartbeat IPC: 0.660169 cumulative IPC: 0.629464 (Simulation time: 0 hr 22 min 20 sec) 
Heartbeat CPU 0 instructions: 6000000 cycles: 6756100 heartbeat IPC: 0.218126 cumulative IPC: 0.218126 (Simulation time: 0 hr 22 min 28 sec) 
Heartbeat CPU 0 instructions: 6000000 cycles: 3914634 heartbeat IPC: 0.731729 cumulative IPC: 0.731729 (Simulation time: 0 hr 22 min 32 sec) 
Heartbeat CPU 0 instructions: 7000003 cycles: 4155251 heartbeat IPC: 0.976809 cumulative IPC: 0.975076 (Simulation time: 0 hr 22 min 34 sec) 
Heartbeat CPU 0 instructions: 7000000 cycles: 9475308 heartbeat IPC: 0.269738 cumulative IPC: 0.303853 (Simulation time: 0 hr 22 min 46 sec) 
Heartbeat CPU 0 instructions: 7000002 cycles: 3778956 heartbeat IPC: 1.14512 cumulative IPC: 1.14835 (Simulation time: 0 hr 22 min 49 sec) 
Heartbeat CPU 0 instructions: 6000001 cycles: 4693094 heartbeat IPC: 0.51447 cumulative IPC: 0.51447 (Simulation time: 0 hr 22 min 50 sec) 
Heartbeat CPU 0 instructions: 5000000 cycles: 3123523 heartbeat IPC: 1.46972 cumulative IPC: 1.60076 (Simulation time: 0 hr 22 min 55 sec) 

Warmup complete CPU 0 instructions: 5000004 cycles: 3123524 (Simulation time: 0 hr 22 min 55 sec) 

Heartbeat CPU 0 instructions: 8000000 cycles: 11186317 heartbeat IPC: 0.312571 cumulative IPC: 0.312191 (Simulation time: 0 hr 22 min 56 sec) 
Heartbeat CPU 0 instructions: 7000000 cycles: 7708347 heartbeat IPC: 0.320296 cumulative IPC: 0.338704 (Simulation time: 0 hr 23 min 5 sec) 
Heartbeat CPU 0 instructions: 6000000 cycles: 5148565 heartbeat IPC: 0.479405 cumulative IPC: 0.479405 (Simulation time: 0 hr 23 min 9 sec) 
Heartbeat CPU 0 instructions: 7000001 cycles: 5706476 heartbeat IPC: 0.621384 cumulative IPC: 0.520665 (Simulation time: 0 hr 23 min 10 sec) 
Heartbeat CPU 0 instructions: 6000002 cycles: 3778737 heartbeat IPC: 0.550466 cumulative IPC: 0.550466 (Simulation time: 0 hr 23 min 14 sec) 
Heartbeat CPU 0 instructions: 6000001 cycles: 4812623 heartbeat IPC: 0.550396 cumulative IPC: 0.550396 (Simulation time: 0 hr 23 min 16 sec) 
Heartbeat CPU 0 instructions: 7000001 cycles: 7002288 heartbeat IPC: 0.458636 cumulative IPC: 0.45964 (Simulation time: 0 hr 23 min 18 sec) 
Heartbeat CPU 0 instructions: 7000002 cycles: 7461659 heartbeat IPC: 0.380615 cumulative IPC: 0.368818 (Simulation time: 0 hr 23 min 19 sec) 
Heartbeat CPU 0 instructions: 7000000 cycles: 8721946 heartbeat IPC: 0.332866 cumulative IPC: 0.341527 (Simulation time: 0 hr 23 min 32 sec) 
Heartbeat CPU 0 instructions: 6000001 cycles: 4325088 heartbeat IPC: 0.602756 cumulative IPC: 0.602756 (Simulation time: 0 hr 23 min 46 sec) 
Heartbeat CPU 0 instructions: 6000003 cycles: 5270109 heartbeat IPC: 0.419146 cumulative IPC: 0.419146 (Simulation time: 0 hr 23 min 48 sec) 
Heartbeat CPU 0 instructions: 7000000 cycles: 4389880 heartbeat IPC: 1.05088 cumulative IPC: 1.09959 (Simulation time: 0 hr 23 min 49 sec) 
Heartbeat CPU 0 instructions: 8000000 cycles: 5870706 heartbeat IPC: 0.903243 cumulative IPC: 0.811728 (Simulation time: 0 hr 23 min 52 sec) 
Heartbeat CPU 0 instructions: 5000002 cycles: 2957066 heartbeat IPC: 1.73739 cumulative IPC: 1.69087 (Simulation time: 0 hr 23 min 51 sec) 

Warmup complete CPU 0 instructions: 5000002 cycles: 2957066 (Simulation time: 0 hr 23 min 51 sec) 

Heartbeat CPU 0 instructions: 6000000 cycles: 5131276 heartbeat IPC: 0.482441 cumulative IPC: 0.48244 (Simulation time: 0 hr 23 min 58 sec) 
Heartbeat CPU 0 instructions: 9000000 cycles: 14698076 heartbeat IPC: 0.398266 cumulative IPC: 0.305213 (Simulation time: 0 hr 24 min 0 sec) 
Heartbeat CPU 0 instructions: 5000002 cycles: 3302719 heartbeat IPC: 1.47513 cumulative IPC: 1.5139 (Simulation time: 0 hr 24 min 1 sec) 

Warmup complete CPU 0 instructions: 5000002 cycles: 3302719 (Simulation time: 0 hr 24 min 1 sec) 

Heartbeat CPU 0 instructions: 7000000 cycles: 5640607 heartbeat IPC: 0.541051 cumulative IPC: 0.543527 (Simulation time: 0 hr 24 min 5 sec) 
Heartbeat CPU 0 instructions: 8000000 cycles: 4095056 heartbeat IPC: 1.80953 cumulative IPC: 1.71616 (Simulation time: 0 hr 24 min 11 sec) 
Heartbeat CPU 0 instructions: 5000003 cycles: 3163138 heartbeat IPC: 1.58134 cumulative IPC: 1.58071 (Simulation time: 0 hr 24 min 14 sec) 

Warmup complete CPU 0 instructions: 5000003 cycles: 3163138 (Simulation time: 0 hr 24 min 14 sec) 

Heartbeat CPU 0 instructions: 6000002 cycles: 5078266 heartbeat IPC: 0.472911 cumulative IPC: 0.47291 (Simulation time: 0 hr 24 min 32 sec) 
Heartbeat CPU 0 instructions: 9000001 cycles: 4502728 heartbeat IPC: 2.09774 cumulative IPC: 2.10454 (Simulation time: 0 hr 24 min 32 sec) 
Heartbeat CPU 0 instructions: 9000000 cycles: 4082145 heartbeat IPC: 1.83023 cumulative IPC: 1.80019 (Simulation time: 0 hr 24 min 46 sec) 
Heartbeat CPU 0 instructions: 7000000 cycles: 7140145 heartbeat IPC: 0.392649 cumulative IPC: 0.388119 (Simulation time: 0 hr 24 min 47 sec) 
Heartbeat CPU 0 instructions: 6000000 cycles: 6128829 heartbeat IPC: 0.719126 cumulative IPC: 0.719126 (Simulation time: 0 hr 24 min 58 sec) 
Heartbeat CPU 0 instructions: 6000001 cycles: 4989627 heartbeat IPC: 0.493916 cumulative IPC: 0.493915 (Simulation time: 0 hr 24 min 59 sec) 
Heartbeat CPU 0 instructions: 6000000 cycles: 3972690 heartbeat IPC: 0.512723 cumulative IPC: 0.512723 (Simulation time: 0 hr 25 min 3 sec) 
Heartbeat CPU 0 instructions: 6000001 cycles: 5872632 heartbeat IPC: 0.368454 cumulative IPC: 0.368454 (Simulation time: 0 hr 25 min 18 sec) 
Heartbeat CPU 0 instructions: 9000001 cycles: 10436196 heartbeat IPC: 0.43084 cumulative IPC: 0.456125 (Simulation time: 0 hr 25 min 21 sec) 
Heartbeat CPU 0 instructions: 8000000 cycles: 6703984 heartbeat IPC: 0.817633 cumulative IPC: 0.701168 (Simulation time: 0 hr 25 min 23 sec) 
Heartbeat CPU 0 instructions: 6000003 cycles: 7235276 heartbeat IPC: 0.220067 cumulative IPC: 0.220067 (Simulation time: 0 hr 25 min 25 sec) 
Heartbeat CPU 0 instructions: 7000000 cycles: 8471939 heartbeat IPC: 0.582805 cumulative IPC: 0.317443 (Simulation time: 0 hr 25 min 24 sec) 
Heartbeat CPU 0 instructions: 6000002 cycles: 5096258 heartbeat IPC: 0.471426 cumulative IPC: 0.471426 (Simulation time: 0 hr 25 min 27 sec) 
Heartbeat CPU 0 instructions: 6000003 cycles: 5728197 heartbeat IPC: 0.378346 cumulative IPC: 0.378346 (Simulation time: 0 hr 25 min 27 sec) 
Heartbeat CPU 0 instructions: 7000000 cycles: 5841926 heartbeat IPC: 0.615133 cumulative IPC: 0.613585 (Simulation time: 0 hr 25 min 32 sec) 
Heartbeat CPU 0 instructions: 6000002 cycles: 4806753 heartbeat IPC: 0.557934 cumulative IPC: 0.557932 (Simulation time: 0 hr 25 min 32 sec) 
Heartbeat CPU 0 instructions: 8000000 cycles: 10521630 heartbeat IPC: 0.955729 cumulative IPC: 0.393264 (Simulation time: 0 hr 25 min 33 sec) 
Heartbeat CPU 0 instructions: 8000000 cycles: 5089105 heartbeat IPC: 1.08386 cumulative IPC: 1.08436 (Simulation time: 0 hr 25 min 47 sec) 
Heartbeat CPU 0 instructions: 8000000 cycles: 7684697 heartbeat IPC: 0.51961 cumulative IPC: 0.520133 (Simulation time: 0 hr 25 min 50 sec) 
Heartbeat CPU 0 instructions: 7000001 cycles: 8339729 heartbeat IPC: 0.219658 cumulative IPC: 0.319079 (Simulation time: 0 hr 26 min 0 sec) 
Heartbeat CPU 0 instructions: 8000000 cycles: 6366781 heartbeat IPC: 0.773833 cumulative IPC: 0.671205 (Simulation time: 0 hr 26 min 4 sec) 
Heartbeat CPU 0 instructions: 8000000 cycles: 5218976 heartbeat IPC: 0.94009 cumulative IPC: 0.963128 (Simulation time: 0 hr 26 min 6 sec) 
Heartbeat CPU 0 instructions: 8000000 cycles: 10501609 heartbeat IPC: 0.358004 cumulative IPC: 0.344902 (Simulation time: 0 hr 26 min 15 sec) 
Heartbeat CPU 0 instructions: 7000000 cycles: 4855253 heartbeat IPC: 0.741889 cumulative IPC: 0.741912 (Simulation time: 0 hr 26 min 18 sec) 
Heartbeat CPU 0 instructions: 6000001 cycles: 14577455 heartbeat IPC: 0.0826486 cumulative IPC: 0.0826486 (Simulation time: 0 hr 26 min 28 sec) 
Heartbeat CPU 0 instructions: 8000000 cycles: 4648785 heartbeat IPC: 1.14965 cumulative IPC: 1.14878 (Simulation time: 0 hr 26 min 32 sec) 
Heartbeat CPU 0 instructions: 9000002 cycles: 14420761 heartbeat IPC: 0.309173 cumulative IPC: 0.311431 (Simulation time: 0 hr 26 min 34 sec) 
Heartbeat CPU 0 instructions: 9000000 cycles: 7182682 heartbeat IPC: 0.762209 cumulative IPC: 0.798755 (Simulation time: 0 hr 26 min 53 sec) 
Heartbeat CPU 0 instructions: 8000000 cycles: 9153369 heartbeat IPC: 0.464882 cumulative IPC: 0.461374 (Simulation time: 0 hr 26 min 58 sec) 
Heartbeat CPU 0 instructions: 9000000 cycles: 4658335 heartbeat IPC: 1.77532 cumulative IPC: 1.73058 (Simulation time: 0 hr 26 min 59 sec) 
Heartbeat CPU 0 instructions: 6000000 cycles: 13635974 heartbeat IPC: 0.0897833 cumulative IPC: 0.0897833 (Simulation time: 0 hr 26 min 59 sec) 
Heartbeat CPU 0 instructions: 10000001 cycles: 4976169 heartbeat IPC: 2.1122 cumulative IPC: 2.10607 (Simulation time: 0 hr 27 min 2 sec) 
Heartbeat CPU 0 instructions: 7000001 cycles: 5305651 heartbeat IPC: 0.718899 cumulative IPC: 0.725257 (Simulation time: 0 hr 27 min 2 sec) 
Heartbeat CPU 0 instructions: 8000000 cycles: 7090101 heartbeat IPC: 0.722738 cumulative IPC: 0.574177 (Simulation time: 0 hr 27 min 5 sec) 
Heartbeat CPU 0 instructions: 7000000 cycles: 6636132 heartbeat IPC: 0.514657 cumulative IPC: 0.514564 (Simulation time: 0 hr 27 min 22 sec) 
Heartbeat CPU 0 instructions: 8000000 cycles: 12155266 heartbeat IPC: 0.291263 cumulative IPC: 0.32295 (Simulation time: 0 hr 27 min 23 sec) 
Heartbeat CPU 0 instructions: 7000002 cycles: 7128473 heartbeat IPC: 0.505075 cumulative IPC: 0.491906 (Simulation time: 0 hr 27 min 25 sec) 
Heartbeat CPU 0 instructions: 6000003 cycles: 9692454 heartbeat IPC: 0.138622 cumulative IPC: 0.138622 (Simulation time: 0 hr 27 min 28 sec) 
Heartbeat CPU 0 instructions: 10000002 cycles: 16778612 heartbeat IPC: 0.480646 cumulative IPC: 0.329248 (Simulation time: 0 hr 27 min 29 sec) 
Heartbeat CPU 0 instructions: 8000000 cycles: 5410792 heartbeat IPC: 0.979516 cumulative IPC: 1.05642 (Simulation time: 0 hr 27 min 37 sec) 
Heartbeat CPU 0 instructions: 8000000 cycles: 11410859 heartbeat IPC: 0.253215 cumulative IPC: 0.320105 (Simulation time: 0 hr 27 min 46 sec) 
Heartbeat CPU 0 instructions: 10000002 cycles: 5021494 heartbeat IPC: 1.06457 cumulative IPC: 1.58161 (Simulation time: 0 hr 28 min 6 sec) 
Heartbeat CPU 0 instructions: 8000000 cycles: 7525281 heartbeat IPC: 0.530596 cumulative IPC: 0.539147 (Simulation time: 0 hr 28 min 7 sec) 
Heartbeat CPU 0 instructions: 7000001 cycles: 6602001 heartbeat IPC: 0.558853 cumulative IPC: 0.554592 (Simulation time: 0 hr 28 min 8 sec) 
Heartbeat CPU 0 instructions: 9000001 cycles: 11569188 heartbeat IPC: 0.954602 cumulative IPC: 0.461041 (Simulation time: 0 hr 28 min 19 sec) 
Heartbeat CPU 0 instructions: 7000001 cycles: 7133158 heartbeat IPC: 0.49953 cumulative IPC: 0.490836 (Simulation time: 0 hr 28 min 20 sec) 
Heartbeat CPU 0 instructions: 6000003 cycles: 5420364 heartbeat IPC: 0.435382 cumulative IPC: 0.43538 (Simulation time: 0 hr 28 min 23 sec) 
Heartbeat CPU 0 instructions: 9000003 cycles: 8001711 heartbeat IPC: 0.77058 cumulative IPC: 0.717321 (Simulation time: 0 hr 28 min 25 sec) 
Heartbeat CPU 0 instructions: 10000000 cycles: 12750202 heartbeat IPC: 0.432151 cumulative IPC: 0.45112 (Simulation time: 0 hr 28 min 38 sec) 
Heartbeat CPU 0 instructions: 6000000 cycles: 5475042 heartbeat IPC: 0.385968 cumulative IPC: 0.385967 (Simulation time: 0 hr 28 min 47 sec) 
Heartbeat CPU 0 instructions: 7000000 cycles: 5976322 heartbeat IPC: 0.605607 cumulative IPC: 0.604178 (Simulation time: 0 hr 28 min 50 sec) 
Heartbeat CPU 0 instructions: 8000000 cycles: 9023790 heartbeat IPC: 0.530886 cumulative IPC: 0.426336 (Simulation time: 0 hr 28 min 50 sec) 
Heartbeat CPU 0 instructions: 7000003 cycles: 5700314 heartbeat IPC: 0.520406 cumulative IPC: 0.535015 (Simulation time: 0 hr 28 min 53 sec) 
Heartbeat CPU 0 instructions: 8000000 cycles: 11191452 heartbeat IPC: 0.367713 cumulative IPC: 0.332599 (Simulation time: 0 hr 28 min 54 sec) 
Heartbeat CPU 0 instructions: 9000003 cycles: 9606334 heartbeat IPC: 0.520391 cumulative IPC: 0.520198 (Simulation time: 0 hr 29 min 18 sec) 
Heartbeat CPU 0 instructions: 9000000 cycles: 6244656 heartbeat IPC: 0.974963 cumulative IPC: 0.96606 (Simulation time: 0 hr 29 min 24 sec) 
Heartbeat CPU 0 instructions: 7000000 cycles: 7691774 heartbeat IPC: 0.412938 cumulative IPC: 0.416019 (Simulation time: 0 hr 29 min 25 sec) 
Heartbeat CPU 0 instructions: 9000000 cycles: 13307880 heartbeat IPC: 0.356345 cumulative IPC: 0.347693 (Simulation time: 0 hr 29 min 28 sec) 
Heartbeat CPU 0 instructions: 9000001 cycles: 6031216 heartbeat IPC: 1.06145 cumulative IPC: 1.07854 (Simulation time: 0 hr 29 min 30 sec) 
Heartbeat CPU 0 instructions: 7000000 cycles: 7226538 heartbeat IPC: 0.469421 cumulative IPC: 0.470421 (Simulation time: 0 hr 29 min 32 sec) 
Heartbeat CPU 0 instructions: 10000001 cycles: 8564711 heartbeat IPC: 0.723575 cumulative IPC: 0.782494 (Simulation time: 0 hr 29 min 35 sec) 
Heartbeat CPU 0 instructions: 7000001 cycles: 7182668 heartbeat IPC: 0.475194 cumulative IPC: 0.474049 (Simulation time: 0 hr 29 min 40 sec) 
Heartbeat CPU 0 instructions: 7000000 cycles: 7086124 heartbeat IPC: 0.476986 cumulative IPC: 0.485303 (Simulation time: 0 hr 29 min 44 sec) 
Heartbeat CPU 0 instructions: 9000001 cycles: 7665611 heartbeat IPC: 0.769924 cumulative IPC: 0.693433 (Simulation time: 0 hr 29 min 43 sec) 
Heartbeat CPU 0 instructions: 10000001 cycles: 5218925 heartbeat IPC: 1.78384 cumulative IPC: 1.74097 (Simulation time: 0 hr 29 min 56 sec) 
Heartbeat CPU 0 instructions: 11000002 cycles: 5453066 heartbeat IPC: 2.09689 cumulative IPC: 2.10453 (Simulation time: 0 hr 29 min 57 sec) 
Heartbeat CPU 0 instructions: 7000001 cycles: 6625881 heartbeat IPC: 0.549713 cumulative IPC: 0.553792 (Simulation time: 0 hr 29 min 58 sec) 
Heartbeat CPU 0 instructions: 7000002 cycles: 8921062 heartbeat IPC: 0.328038 cumulative IPC: 0.347074 (Simulation time: 0 hr 29 min 58 sec) 
Heartbeat CPU 0 instructions: 10000003 cycles: 17555205 heartbeat IPC: 0.319036 cumulative IPC: 0.312923 (Simulation time: 0 hr 30 min 7 sec) 
Heartbeat CPU 0 instructions: 8000000 cycles: 7464681 heartbeat IPC: 0.616236 cumulative IPC: 0.614466 (Simulation time: 0 hr 30 min 9 sec) 
Heartbeat CPU 0 instructions: 7000000 cycles: 8384310 heartbeat IPC: 0.376489 cumulative IPC: 0.377415 (Simulation time: 0 hr 30 min 12 sec) 
Heartbeat CPU 0 instructions: 7000000 cycles: 7493817 heartbeat IPC: 0.732607 cumulative IPC: 0.725804 (Simulation time: 0 hr 30 min 15 sec) 
Heartbeat CPU 0 instructions: 9000000 cycles: 5522697 heartbeat IPC: 1.14428 cumulative IPC: 1.14765 (Simulation time: 0 hr 30 min 26 sec) 
Heartbeat CPU 0 instructions: 9000000 cycles: 11337453 heartbeat IPC: 0.457858 cumulative IPC: 0.46049 (Simulation time: 0 hr 30 min 29 sec) 
Heartbeat CPU 0 instructions: 6000001 cycles: 13107450 heartbeat IPC: 0.101991 cumulative IPC: 0.101991 (Simulation time: 0 hr 30 min 41 sec) 
Heartbeat CPU 0 instructions: 7000001 cycles: 6158046 heartbeat IPC: 0.457592 cumulative IPC: 0.483591 (Simulation time: 0 hr 31 min 0 sec) 
Heartbeat CPU 0 instructions: 11000001 cycles: 18776348 heartbeat IPC: 0.500566 cumulative IPC: 0.349165 (Simulation time: 0 hr 31 min 5 sec) 
Heartbeat CPU 0 instructions: 9000003 cycles: 8775621 heartbeat IPC: 0.593291 cumulative IPC: 0.578839 (Simulation time: 0 hr 31 min 5 sec) 
Heartbeat CPU 0 instructions: 8000000 cycles: 6267515 heartbeat IPC: 0.708084 cumulative IPC: 0.730282 (Simulation time: 0 hr 31 min 10 sec) 
Heartbeat CPU 0 instructions: 7000002 cycles: 11831369 heartbeat IPC: 0.217576 cumulative IPC: 0.218814 (Simulation time: 0 hr 31 min 14 sec) 
Heartbeat CPU 0 instructions: 10000003 cycles: 12614935 heartbeat IPC: 0.956256 cumulative IPC: 0.51431 (Simulation time: 0 hr 31 min 19 sec) 
Heartbeat CPU 0 instructions: 11000001 cycles: 5597376 heartbeat IPC: 1.73647 cumulative IPC: 1.60547 (Simulation time: 0 hr 31 min 21 sec) 
Heartbeat CPU 0 instructions: 9000000 cycles: 6354386 heartbeat IPC: 1.05978 cumulative IPC: 1.05726 (Simulation time: 0 hr 31 min 23 sec) 
Heartbeat CPU 0 instructions: 8000000 cycles: 12660590 heartbeat IPC: 0.231435 cumulative IPC: 0.283316 (Simulation time: 0 hr 31 min 23 sec) 
Heartbeat CPU 0 instructions: 9000001 cycles: 15312613 heartbeat IPC: 0.316722 cumulative IPC: 0.32137 (Simulation time: 0 hr 31 min 23 sec) 
Heartbeat CPU 0 instructions: 6000003 cycles: 7596737 heartbeat IPC: 0.215533 cumulative IPC: 0.215533 (Simulation time: 0 hr 31 min 24 sec) 
Heartbeat CPU 0 instructions: 6000002 cycles: 6301364 heartbeat IPC: 0.318651 cumulative IPC: 0.318651 (Simulation time: 0 hr 31 min 29 sec) 
Heartbeat CPU 0 instructions: 8000000 cycles: 9170505 heartbeat IPC: 0.489707 cumulative IPC: 0.491171 (Simulation time: 0 hr 31 min 33 sec) 
Heartbeat CPU 0 instructions: 10000000 cycles: 9321539 heartbeat IPC: 0.757672 cumulative IPC: 0.725044 (Simulation time: 0 hr 31 min 45 sec) 
Heartbeat CPU 0 instructions: 8000000 cycles: 8582150 heartbeat IPC: 0.51387 cumulative IPC: 0.514332 (Simulation time: 0 hr 31 min 51 sec) 
Heartbeat CPU 0 instructions: 11000000 cycles: 15069022 heartbeat IPC: 0.431254 cumulative IPC: 0.447683 (Simulation time: 0 hr 31 min 52 sec) 
Heartbeat CPU 0 instructions: 9000000 cycles: 14612601 heartbeat IPC: 0.31233 cumulative IPC: 0.318125 (Simulation time: 0 hr 31 min 54 sec) 
Heartbeat CPU 0 instructions: 8000000 cycles: 6688502 heartbeat IPC: 0.723143 cumulative IPC: 0.724551 (Simulation time: 0 hr 31 min 57 sec) 
Heartbeat CPU 0 instructions: 9000000 cycles: 9375804 heartbeat IPC: 0.540388 cumulative IPC: 0.539456 (Simulation time: 0 hr 32 min 15 sec) 
Heartbeat CPU 0 instructions: 11000000 cycles: 10086630 heartbeat IPC: 0.657065 cumulative IPC: 0.758366 (Simulation time: 0 hr 32 min 19 sec) 
Heartbeat CPU 0 instructions: 8000000 cycles: 9179622 heartbeat IPC: 0.488647 cumulative IPC: 0.490105 (Simulation time: 0 hr 32 min 30 sec) 
Heartbeat CPU 0 instructions: 12000000 cycles: 5929530 heartbeat IPC: 2.09879 cumulative IPC: 2.10371 (Simulation time: 0 hr 32 min 42 sec) 
Heartbeat CPU 0 instructions: 10000000 cycles: 7102504 heartbeat IPC: 1.16571 cumulative IPC: 1.00032 (Simulation time: 0 hr 32 min 42 sec) 
[...]
Heartbeat CPU 0 instructions: 54000001 cycles: 125329777 heartbeat IPC: 0.475686 cumulative IPC: 0.400442 (Simulation time: 3 hr 14 min 53 sec) 
Heartbeat CPU 0 instructions: 48000000 cycles: 135701184 heartbeat IPC: 0.324782 cumulative IPC: 0.324435 (Simulation time: 3 hr 14 min 55 sec) 
Heartbeat CPU 0 instructions: 50000000 cycles: 101204426 heartbeat IPC: 0.297132 cumulative IPC: 0.457688 (Simulation time: 3 hr 15 min 1 sec) 
Heartbeat CPU 0 instructions: 47000000 cycles: 179312694 heartbeat IPC: 0.305973 cumulative IPC: 0.238155 (Simulation time: 3 hr 15 min 5 sec) 
Heartbeat CPU 0 instructions: 52000000 cycles: 125084090 heartbeat IPC: 0.381002 cumulative IPC: 0.385249 (Simulation time: 3 hr 15 min 7 sec) 
Heartbeat CPU 0 instructions: 49000000 cycles: 120057720 heartbeat IPC: 0.251892 cumulative IPC: 0.373203 (Simulation time: 3 hr 15 min 9 sec) 
Heartbeat CPU 0 instructions: 41000000 cycles: 447410032 heartbeat IPC: 0.0831187 cumulative IPC: 0.0809149 (Simulation time: 3 hr 15 min 14 sec) 
Heartbeat CPU 0 instructions: 49000000 cycles: 224998072 heartbeat IPC: 0.271508 cumulative IPC: 0.197925 (Simulation time: 3 hr 15 min 16 sec) 
Heartbeat CPU 0 instructions: 45000001 cycles: 358471592 heartbeat IPC: 0.125913 cumulative IPC: 0.112362 (Simulation time: 3 hr 15 min 21 sec) 
Heartbeat CPU 0 instructions: 40000000 cycles: 434339218 heartbeat IPC: 0.0672638 cumulative IPC: 0.0810446 (Simulation time: 3 hr 15 min 35 sec) 
Heartbeat CPU 0 instructions: 49000000 cycles: 352914006 heartbeat IPC: 0.154284 cumulative IPC: 0.125854 (Simulation time: 3 hr 15 min 36 sec) 
Heartbeat CPU 0 instructions: 49000002 cycles: 138748135 heartbeat IPC: 0.328198 cumulative IPC: 0.32452 (Simulation time: 3 hr 15 min 36 sec) 
Heartbeat CPU 0 instructions: 48000000 cycles: 183518688 heartbeat IPC: 0.237756 cumulative IPC: 0.238146 (Simulation time: 3 hr 15 min 51 sec) 
Heartbeat CPU 0 instructions: 55000000 cycles: 127426104 heartbeat IPC: 0.477024 cumulative IPC: 0.401732 (Simulation time: 3 hr 15 min 53 sec) 
Finished CPU 0 instructions: 50000000 cycles: 124461113 cummulative IPC: 0.401732 (Simulation time: 3 hr 15 min 53 sec) 

ChampSim completed all CPUs

Region of Interest Statistics

CPU 0 cummulative IPC: 0.401732 instructions: 50000000 cycles: 124461113
LLC TOTAL     ACCESS:     585984  HIT:     164426  MISS:     421558
LLC LOAD      ACCESS:     317739  HIT:      18721  MISS:     299018
LLC RFO       ACCESS:     134054  HIT:      11726  MISS:     122328
LLC PREFETCH  ACCESS:          0  HIT:          0  MISS:          0
LLC WRITEBACK ACCESS:     134191  HIT:     133979  MISS:        212
Heartbeat CPU 0 instructions: 50000003 cycles: 228674672 heartbeat IPC: 0.271991 cumulative IPC: 0.19913 (Simulation time: 3 hr 15 min 53 sec) 
Heartbeat CPU 0 instructions: 51000003 cycles: 104791429 heartbeat IPC: 0.278785 cumulative IPC: 0.451391 (Simulation time: 3 hr 15 min 56 sec) 
Heartbeat CPU 0 instructions: 50000001 cycles: 123888511 heartbeat IPC: 0.261043 cumulative IPC: 0.369674 (Simulation time: 3 hr 15 min 58 sec) 
Heartbeat CPU 0 instructions: 46000001 cycles: 363580827 heartbeat IPC: 0.195724 cumulative IPC: 0.113541 (Simulation time: 3 hr 16 min 0 sec) 
Heartbeat CPU 0 instructions: 53000000 cycles: 127684325 heartbeat IPC: 0.384581 cumulative IPC: 0.385235 (Simulation time: 3 hr 16 min 0 sec) 
Heartbeat CPU 0 instructions: 50000000 cycles: 359621051 heartbeat IPC: 0.149097 cumulative IPC: 0.126292 (Simulation time: 3 hr 16 min 10 sec) 
Heartbeat CPU 0 instructions: 42000000 cycles: 459441090 heartbeat IPC: 0.0831182 cumulative IPC: 0.0809729 (Simulation time: 3 hr 16 min 10 sec) 
Heartbeat CPU 0 instructions: 50000001 cycles: 141808871 heartbeat IPC: 0.326718 cumulative IPC: 0.324568 (Simulation time: 3 hr 16 min 15 sec) 
Heartbeat CPU 0 instructions: 51000001 cycles: 232353347 heartbeat IPC: 0.271836 cumulative IPC: 0.200294 (Simulation time: 3 hr 16 min 23 sec) 
Heartbeat CPU 0 instructions: 41000003 cycles: 444359899 heartbeat IPC: 0.0997939 cumulative IPC: 0.0814697 (Simulation time: 3 hr 16 min 23 sec) 
Heartbeat CPU 0 instructions: 49000000 cycles: 186685059 heartbeat IPC: 0.315819 cumulative IPC: 0.239484 (Simulation time: 3 hr 16 min 26 sec) 
Heartbeat CPU 0 instructions: 52000000 cycles: 108285469 heartbeat IPC: 0.286201 cumulative IPC: 0.445915 (Simulation time: 3 hr 16 min 36 sec) 
Heartbeat CPU 0 instructions: 51000000 cycles: 127733324 heartbeat IPC: 0.26009 cumulative IPC: 0.366318 (Simulation time: 3 hr 16 min 40 sec) 
Heartbeat CPU 0 instructions: 51000000 cycles: 367021518 heartbeat IPC: 0.135127 cumulative IPC: 0.126471 (Simulation time: 3 hr 16 min 42 sec) 
Heartbeat CPU 0 instructions: 47000002 cycles: 373352359 heartbeat IPC: 0.102338 cumulative IPC: 0.113246 (Simulation time: 3 hr 16 min 43 sec) 
Heartbeat CPU 0 instructions: 54000001 cycles: 130339276 heartbeat IPC: 0.376655 cumulative IPC: 0.385056 (Simulation time: 3 hr 16 min 48 sec) 
Heartbeat CPU 0 instructions: 51000002 cycles: 144838460 heartbeat IPC: 0.330078 cumulative IPC: 0.324686 (Simulation time: 3 hr 16 min 50 sec) 
Heartbeat CPU 0 instructions: 52000000 cycles: 236004125 heartbeat IPC: 0.273914 cumulative IPC: 0.201446 (Simulation time: 3 hr 16 min 52 sec) 
Heartbeat CPU 0 instructions: 43000000 cycles: 471543802 heartbeat IPC: 0.0826261 cumulative IPC: 0.0810155 (Simulation time: 3 hr 16 min 56 sec) 
Heartbeat CPU 0 instructions: 42000000 cycles: 453039647 heartbeat IPC: 0.11521 cumulative IPC: 0.0821197 (Simulation time: 3 hr 17 min 1 sec) 
Heartbeat CPU 0 instructions: 50000001 cycles: 191050102 heartbeat IPC: 0.229093 cumulative IPC: 0.239243 (Simulation time: 3 hr 17 min 2 sec) 
Heartbeat CPU 0 instructions: 53000001 cycles: 111471247 heartbeat IPC: 0.313895 cumulative IPC: 0.442041 (Simulation time: 3 hr 17 min 13 sec) 
Heartbeat CPU 0 instructions: 52000000 cycles: 376045153 heartbeat IPC: 0.11082 cumulative IPC: 0.126092 (Simulation time: 3 hr 17 min 20 sec) 
Heartbeat CPU 0 instructions: 52000000 cycles: 131532272 heartbeat IPC: 0.263231 cumulative IPC: 0.363291 (Simulation time: 3 hr 17 min 21 sec) 
Heartbeat CPU 0 instructions: 53000001 cycles: 239672585 heartbeat IPC: 0.272594 cumulative IPC: 0.202548 (Simulation time: 3 hr 17 min 21 sec) 
Heartbeat CPU 0 instructions: 52000000 cycles: 147850337 heartbeat IPC: 0.332018 cumulative IPC: 0.324839 (Simulation time: 3 hr 17 min 23 sec) 
Heartbeat CPU 0 instructions: 48000000 cycles: 385127917 heartbeat IPC: 0.0849215 cumulative IPC: 0.112374 (Simulation time: 3 hr 17 min 28 sec) 
Heartbeat CPU 0 instructions: 55000001 cycles: 132779575 heartbeat IPC: 0.409786 cumulative IPC: 0.385521 (Simulation time: 3 hr 17 min 37 sec) 
Finished CPU 0 instructions: 50000000 cycles: 129694465 cummulative IPC: 0.385521 (Simulation time: 3 hr 17 min 37 sec) 

ChampSim completed all CPUs

Region of Interest Statistics

CPU 0 cummulative IPC: 0.385521 instructions: 50000000 cycles: 129694465
LLC TOTAL     ACCESS:     168332  HIT:     152002  MISS:      16330
LLC LOAD      ACCESS:     116139  HIT:     103570  MISS:      12569
LLC RFO       ACCESS:      15800  HIT:      12128  MISS:       3672
LLC PREFETCH  ACCESS:          0  HIT:          0  MISS:          0
LLC WRITEBACK ACCESS:      36393  HIT:      36304  MISS:         89
Heartbeat CPU 0 instructions: 51000003 cycles: 195053404 heartbeat IPC: 0.249794 cumulative IPC: 0.239463 (Simulation time: 3 hr 17 min 38 sec) 
Heartbeat CPU 0 instructions: 44000000 cycles: 483661497 heartbeat IPC: 0.0825239 cumulative IPC: 0.0810535 (Simulation time: 3 hr 17 min 41 sec) 
Heartbeat CPU 0 instructions: 43000001 cycles: 464577267 heartbeat IPC: 0.0866731 cumulative IPC: 0.0822334 (Simulation time: 3 hr 17 min 48 sec) 
Heartbeat CPU 0 instructions: 54000000 cycles: 114617799 heartbeat IPC: 0.317808 cumulative IPC: 0.438543 (Simulation time: 3 hr 17 min 49 sec) 
Heartbeat CPU 0 instructions: 54000000 cycles: 243331226 heartbeat IPC: 0.273325 cumulative IPC: 0.203624 (Simulation time: 3 hr 17 min 50 sec) 
Heartbeat CPU 0 instructions: 53000000 cycles: 382928715 heartbeat IPC: 0.145274 cumulative IPC: 0.12644 (Simulation time: 3 hr 17 min 52 sec) 
Heartbeat CPU 0 instructions: 53000000 cycles: 150965722 heartbeat IPC: 0.320988 cumulative IPC: 0.324757 (Simulation time: 3 hr 17 min 56 sec) 
Heartbeat CPU 0 instructions: 53000000 cycles: 135308202 heartbeat IPC: 0.264835 cumulative IPC: 0.360499 (Simulation time: 3 hr 18 min 0 sec) 
Heartbeat CPU 0 instructions: 49000000 cycles: 390555302 heartbeat IPC: 0.184251 cumulative IPC: 0.11338 (Simulation time: 3 hr 18 min 1 sec) 
Heartbeat CPU 0 instructions: 52000000 cycles: 199479628 heartbeat IPC: 0.225926 cumulative IPC: 0.239158 (Simulation time: 3 hr 18 min 14 sec) 
Heartbeat CPU 0 instructions: 55000000 cycles: 247006208 heartbeat IPC: 0.27211 cumulative IPC: 0.204654 (Simulation time: 3 hr 18 min 16 sec) 
Finished CPU 0 instructions: 50000000 cycles: 244315034 cummulative IPC: 0.204654 (Simulation time: 3 hr 18 min 16 sec) 

ChampSim completed all CPUs

Region of Interest Statistics

CPU 0 cummulative IPC: 0.204654 instructions: 50000000 cycles: 244315034
LLC TOTAL     ACCESS:    2081094  HIT:     433808  MISS:    1647286
LLC LOAD      ACCESS:    1000717  HIT:     114236  MISS:     886481
LLC RFO       ACCESS:     448022  HIT:      32144  MISS:     415878
LLC PREFETCH  ACCESS:          0  HIT:          0  MISS:          0
LLC WRITEBACK ACCESS:     632355  HIT:     287428  MISS:     344927
Heartbeat CPU 0 instructions: 54000001 cycles: 390668628 heartbeat IPC: 0.129201 cumulative IPC: 0.126495 (Simulation time: 3 hr 18 min 20 sec) 
Heartbeat CPU 0 instructions: 55000002 cycles: 117780320 heartbeat IPC: 0.316204 cumulative IPC: 0.435176 (Simulation time: 3 hr 18 min 22 sec) 
Finished CPU 0 instructions: 50000002 cycles: 114896164 cummulative IPC: 0.435176 (Simulation time: 3 hr 18 min 22 sec) 

ChampSim completed all CPUs

Region of Interest Statistics

CPU 0 cummulative IPC: 0.435176 instructions: 50000002 cycles: 114896164
LLC TOTAL     ACCESS:    1860281  HIT:     926824  MISS:     933457
LLC LOAD      ACCESS:    1091618  HIT:     180092  MISS:     911526
LLC RFO       ACCESS:     126461  HIT:     115193  MISS:      11268
LLC PREFETCH  ACCESS:          0  HIT:          0  MISS:          0
LLC WRITEBACK ACCESS:     642202  HIT:     631539  MISS:      10663
Heartbeat CPU 0 instructions: 45000001 cycles: 495728983 heartbeat IPC: 0.0828674 cumulative IPC: 0.0810979 (Simulation time: 3 hr 18 min 23 sec) 
Heartbeat CPU 0 instructions: 54000000 cycles: 154001110 heartbeat IPC: 0.329447 cumulative IPC: 0.324852 (Simulation time: 3 hr 18 min 28 sec) 
Heartbeat CPU 0 instructions: 54000001 cycles: 137723017 heartbeat IPC: 0.414111 cumulative IPC: 0.361454 (Simulation time: 3 hr 18 min 29 sec) 
Heartbeat CPU 0 instructions: 50000001 cycles: 397527370 heartbeat IPC: 0.14343 cumulative IPC: 0.11391 (Simulation time: 3 hr 18 min 30 sec) 
Heartbeat CPU 0 instructions: 44000000 cycles: 477517675 heartbeat IPC: 0.0772772 cumulative IPC: 0.0820984 (Simulation time: 3 hr 18 min 30 sec) 
Heartbeat CPU 0 instructions: 55000001 cycles: 398893035 heartbeat IPC: 0.121589 cumulative IPC: 0.126393 (Simulation time: 3 hr 18 min 45 sec) 
Finished CPU 0 instructions: 50000000 cycles: 395590319 cummulative IPC: 0.126393 (Simulation time: 3 hr 18 min 45 sec) 

ChampSim completed all CPUs

Region of Interest Statistics

CPU 0 cummulative IPC: 0.126393 instructions: 50000000 cycles: 395590319
LLC TOTAL     ACCESS:    4073917  HIT:    1553050  MISS:    2520867
LLC LOAD      ACCESS:    1208958  HIT:     273797  MISS:     935161
LLC RFO       ACCESS:    1207738  HIT:     452192  MISS:     755546
LLC PREFETCH  ACCESS:          0  HIT:          0  MISS:          0
LLC WRITEBACK ACCESS:    1657221  HIT:     827061  MISS:     830160
Heartbeat CPU 0 instructions: 53000000 cycles: 204365451 heartbeat IPC: 0.204674 cumulative IPC: 0.238322 (Simulation time: 3 hr 18 min 44 sec) 
Heartbeat CPU 0 instructions: 55000003 cycles: 157025920 heartbeat IPC: 0.3306 cumulative IPC: 0.324965 (Simulation time: 3 hr 18 min 55 sec) 
Finished CPU 0 instructions: 50000000 cycles: 153862782 cummulative IPC: 0.324965 (Simulation time: 3 hr 18 min 55 sec) 

ChampSim completed all CPUs

Region of Interest Statistics

CPU 0 cummulative IPC: 0.324965 instructions: 50000000 cycles: 153862782
LLC TOTAL     ACCESS:    2633441  HIT:     520295  MISS:    2113146
LLC LOAD      ACCESS:    1915756  HIT:     414106  MISS:    1501650
LLC RFO       ACCESS:          0  HIT:          0  MISS:          0
LLC PREFETCH  ACCESS:          0  HIT:          0  MISS:          0
LLC WRITEBACK ACCESS:     717685  HIT:     106189  MISS:     611496
Heartbeat CPU 0 instructions: 55000002 cycles: 140304513 heartbeat IPC: 0.387373 cumulative IPC: 0.361939 (Simulation time: 3 hr 18 min 55 sec) 
Finished CPU 0 instructions: 50000001 cycles: 138144997 cummulative IPC: 0.361939 (Simulation time: 3 hr 18 min 55 sec) 

ChampSim completed all CPUs

Region of Interest Statistics

CPU 0 cummulative IPC: 0.361939 instructions: 50000001 cycles: 138144997
LLC TOTAL     ACCESS:    1603720  HIT:     743748  MISS:     859972
LLC LOAD      ACCESS:    1394488  HIT:     544886  MISS:     849602
LLC RFO       ACCESS:      12669  HIT:       2798  MISS:       9871
LLC PREFETCH  ACCESS:          0  HIT:          0  MISS:          0
LLC WRITEBACK ACCESS:     196563  HIT:     196064  MISS:        499
Heartbeat CPU 0 instructions: 45000000 cycles: 485209520 heartbeat IPC: 0.130008 cumulative IPC: 0.0828618 (Simulation time: 3 hr 18 min 55 sec) 
Heartbeat CPU 0 instructions: 46000000 cycles: 507767674 heartbeat IPC: 0.0830654 cumulative IPC: 0.0811448 (Simulation time: 3 hr 18 min 56 sec) 
Heartbeat CPU 0 instructions: 51000001 cycles: 411985359 heartbeat IPC: 0.0691659 cumulative IPC: 0.11233 (Simulation time: 3 hr 19 min 5 sec) 
Heartbeat CPU 0 instructions: 54000002 cycles: 208919426 heartbeat IPC: 0.219589 cumulative IPC: 0.237908 (Simulation time: 3 hr 19 min 6 sec) 
Heartbeat CPU 0 instructions: 46000002 cycles: 496297923 heartbeat IPC: 0.0901845 cumulative IPC: 0.0830262 (Simulation time: 3 hr 19 min 16 sec) 
Heartbeat CPU 0 instructions: 47000002 cycles: 519768962 heartbeat IPC: 0.0833246 cumulative IPC: 0.0811954 (Simulation time: 3 hr 19 min 17 sec) 
Heartbeat CPU 0 instructions: 52000000 cycles: 417371713 heartbeat IPC: 0.185654 cumulative IPC: 0.113282 (Simulation time: 3 hr 19 min 20 sec) 
Heartbeat CPU 0 instructions: 55000001 cycles: 213175397 heartbeat IPC: 0.234964 cumulative IPC: 0.237848 (Simulation time: 3 hr 19 min 22 sec) 
Finished CPU 0 instructions: 50000001 cycles: 210218332 cummulative IPC: 0.237848 (Simulation time: 3 hr 19 min 22 sec) 

ChampSim completed all CPUs

Region of Interest Statistics

CPU 0 cummulative IPC: 0.237848 instructions: 50000001 cycles: 210218332
LLC TOTAL     ACCESS:    1600841  HIT:     730078  MISS:     870763
LLC LOAD      ACCESS:     958798  HIT:     262907  MISS:     695891
LLC RFO       ACCESS:     163992  HIT:      43184  MISS:     120808
LLC PREFETCH  ACCESS:          0  HIT:          0  MISS:          0
LLC WRITEBACK ACCESS:     478051  HIT:     423987  MISS:      54064
Heartbeat CPU 0 instructions: 53000000 cycles: 422463318 heartbeat IPC: 0.196402 cumulative IPC: 0.11429 (Simulation time: 3 hr 19 min 31 sec) 
Heartbeat CPU 0 instructions: 48000000 cycles: 531502011 heartbeat IPC: 0.0852292 cumulative IPC: 0.0812848 (Simulation time: 3 hr 19 min 32 sec) 
Heartbeat CPU 0 instructions: 47000002 cycles: 509364667 heartbeat IPC: 0.0765302 cumulative IPC: 0.0828588 (Simulation time: 3 hr 19 min 33 sec) 
Heartbeat CPU 0 instructions: 48000000 cycles: 517344187 heartbeat IPC: 0.125321 cumulative IPC: 0.0835169 (Simulation time: 3 hr 19 min 43 sec) 
Heartbeat CPU 0 instructions: 49000000 cycles: 543645304 heartbeat IPC: 0.08235 cumulative IPC: 0.0813087 (Simulation time: 3 hr 19 min 45 sec) 
Heartbeat CPU 0 instructions: 54000002 cycles: 438036781 heartbeat IPC: 0.0642119 cumulative IPC: 0.112499 (Simulation time: 3 hr 19 min 48 sec) 
Heartbeat CPU 0 instructions: 49000000 cycles: 528429664 heartbeat IPC: 0.0902081 cumulative IPC: 0.0836579 (Simulation time: 3 hr 19 min 56 sec) 
Heartbeat CPU 0 instructions: 55000002 cycles: 443893191 heartbeat IPC: 0.170753 cumulative IPC: 0.113272 (Simulation time: 3 hr 19 min 58 sec) 
Finished CPU 0 instructions: 50000001 cycles: 441414603 cummulative IPC: 0.113272 (Simulation time: 3 hr 19 min 58 sec) 

ChampSim completed all CPUs

Region of Interest Statistics

CPU 0 cummulative IPC: 0.113272 instructions: 50000001 cycles: 441414603
LLC TOTAL     ACCESS:    5613618  HIT:    2374775  MISS:    3238843
LLC LOAD      ACCESS:    4493008  HIT:    1729558  MISS:    2763450
LLC RFO       ACCESS:      98837  HIT:      56970  MISS:      41867
LLC PREFETCH  ACCESS:          0  HIT:          0  MISS:          0
LLC WRITEBACK ACCESS:    1021773  HIT:     588247  MISS:     433526
Heartbeat CPU 0 instructions: 50000002 cycles: 555754066 heartbeat IPC: 0.082585 cumulative IPC: 0.0813367 (Simulation time: 3 hr 19 min 58 sec) 
Heartbeat CPU 0 instructions: 50000000 cycles: 541442895 heartbeat IPC: 0.0768449 cumulative IPC: 0.0834934 (Simulation time: 3 hr 20 min 8 sec) 
Heartbeat CPU 0 instructions: 51000002 cycles: 567845893 heartbeat IPC: 0.0827005 cumulative IPC: 0.0813658 (Simulation time: 3 hr 20 min 9 sec) 
Heartbeat CPU 0 instructions: 51000000 cycles: 549116822 heartbeat IPC: 0.130311 cumulative IPC: 0.0841506 (Simulation time: 3 hr 20 min 17 sec) 
Heartbeat CPU 0 instructions: 52000000 cycles: 579861769 heartbeat IPC: 0.0832231 cumulative IPC: 0.0814045 (Simulation time: 3 hr 20 min 19 sec) 
Heartbeat CPU 0 instructions: 52000000 cycles: 559623254 heartbeat IPC: 0.0951798 cumulative IPC: 0.0843586 (Simulation time: 3 hr 20 min 26 sec) 
Heartbeat CPU 0 instructions: 53000000 cycles: 592006311 heartbeat IPC: 0.0823415 cumulative IPC: 0.0814238 (Simulation time: 3 hr 20 min 30 sec) 
Heartbeat CPU 0 instructions: 53000000 cycles: 573593196 heartbeat IPC: 0.0715823 cumulative IPC: 0.0840461 (Simulation time: 3 hr 20 min 38 sec) 
Heartbeat CPU 0 instructions: 54000000 cycles: 604012651 heartbeat IPC: 0.0832893 cumulative IPC: 0.081461 (Simulation time: 3 hr 20 min 40 sec) 
Heartbeat CPU 0 instructions: 54000000 cycles: 581533120 heartbeat IPC: 0.125946 cumulative IPC: 0.0846206 (Simulation time: 3 hr 20 min 47 sec) 
Heartbeat CPU 0 instructions: 55000000 cycles: 616062499 heartbeat IPC: 0.0829886 cumulative IPC: 0.081491 (Simulation time: 3 hr 20 min 51 sec) 
Finished CPU 0 instructions: 50000000 cycles: 613564433 cummulative IPC: 0.081491 (Simulation time: 3 hr 20 min 51 sec) 

ChampSim completed all CPUs

Region of Interest Statistics

CPU 0 cummulative IPC: 0.081491 instructions: 50000000 cycles: 613564433
LLC TOTAL     ACCESS:    7409436  HIT:    3906271  MISS:    3503165
LLC LOAD      ACCESS:    7242672  HIT:    3781341  MISS:    3461331
LLC RFO       ACCESS:      12947  HIT:       7240  MISS:       5707
LLC PREFETCH  ACCESS:          0  HIT:          0  MISS:          0
LLC WRITEBACK ACCESS:     153817  HIT:     117690  MISS:      36127
Heartbeat CPU 0 instructions: 55000000 cycles: 590738940 heartbeat IPC: 0.108627 cumulative IPC: 0.0849963 (Simulation time: 3 hr 20 min 55 sec) 
Finished CPU 0 instructions: 50000003 cycles: 588260920 cummulative IPC: 0.0849963 (Simulation time: 3 hr 20 min 55 sec) 

ChampSim completed all CPUs

Region of Interest Statistics

CPU 0 cummulative IPC: 0.0849963 instructions: 50000003 cycles: 588260920
LLC TOTAL     ACCESS:    6474205  HIT:    3115029  MISS:    3359176
LLC LOAD      ACCESS:    5697323  HIT:    2579444  MISS:    3117879
LLC RFO       ACCESS:      65899  HIT:      36329  MISS:      29570
LLC PREFETCH  ACCESS:          0  HIT:          0  MISS:          0
LLC WRITEBACK ACCESS:     710983  HIT:     499256  MISS:     211727
