
*** ChampSim Multicore Out-of-Order Simulator ***

Warmup Instructions: 5000000
Simulation Instructions: 50000000
Configuration: 1
Number of CPUs: 1
LLC sets: 2048
LLC ways: 16
Off-chip DRAM Channels: 1 Width: 64-bit Data Rate: 1600 MT/s


*** ChampSim Multicore Out-of-Order Simulator ***

Warmup Instructions: 5000000
Simulation Instructions: 50000000
Configuration: 1
Number of CPUs: 1
LLC sets: 2048
LLC ways: 16
Off-chip DRAM Channels: 1 Width: 64-bit Data Rate: 1600 MT/s


*** ChampSim Multicore Out-of-Order Simulator ***

Warmup Instructions: 5000000
Simulation Instructions: 50000000
Configuration: 1
Number of CPUs: 1
LLC sets: 2048
LLC ways: 16
Off-chip DRAM Channels: 1 Width: 64-bit Data Rate: 1600 MT/s


*** ChampSim Multicore Out-of-Order Simulator ***

Warmup Instructions: 5000000
Simulation Instructions: 50000000
Configuration: 1
Number of CPUs: 1
LLC sets: 2048
LLC ways: 16
Off-chip DRAM Channels: 1 Width: 64-bit Data Rate: 1600 MT/s


*** ChampSim Multicore Out-of-Order Simulator ***

Warmup Instructions: 5000000
Simulation Instructions: 50000000
Configuration: 1
Number of CPUs: 1
LLC sets: 2048
LLC ways: 16
Off-chip DRAM Channels: 1 Width: 64-bit Data Rate: 1600 MT/s


*** ChampSim Multicore Out-of-Order Simulator ***

Warmup Instructions: 5000000
Simulation Instructions: 50000000
Configuration: 1
Number of CPUs: 1
LLC sets: 2048
LLC ways: 16
Off-chip DRAM Channels: 1 Width: 64-bit Data Rate: 1600 MT/s


*** ChampSim Multicore Out-of-Order Simulator ***

Warmup Instructions: 5000000
Simulation Instructions: 50000000
Configuration: 1
Number of CPUs: 1
LLC sets: 2048
LLC ways: 16
Off-chip DRAM Channels: 1 Width: 64-bit Data Rate: 1600 MT/s


*** ChampSim Multicore Out-of-Order Simulator ***

Warmup Instructions: 5000000
Simulation Instructions: 50000000
Configuration: 1
Number of CPUs: 1
LLC sets: 2048
LLC ways: 16
Off-chip DRAM Channels: 1 Width: 64-bit Data Rate: 1600 MT/s


*** ChampSim Multicore Out-of-Order Simulator ***

Warmup Instructions: 5000000
Simulation Instructions: 50000000

*** ChampSim Multicore Out-of-Order Simulator ***

Warmup Instructions: 5000000
Simulation Instructions: 50000000
Configuration: 1
Number of CPUs: 1
LLC sets: 2048
LLC ways: 16
Off-chip DRAM Channels: 1 Width: 64-bit Data Rate: 1600 MT/s


*** ChampSim Multicore Out-of-Order Simulator ***

Warmup Instructions: 5000000
Simulation Instructions: 50000000
Configuration: 1
Number of CPUs: 1
LLC sets: 2048
LLC ways: 16
Off-chip DRAM Channels: 1 Width: 64-bit Data Rate: 1600 MT/s


*** ChampSim Multicore Out-of-Order Simulator ***

Warmup Instructions: 5000000
Simulation Instructions: 50000000
Configuration: 1
Number of CPUs: 1
LLC sets: 2048
LLC ways: 16
Off-chip DRAM Channels: 1 Width: 64-bit Data Rate: 1600 MT/s



*** ChampSim Multicore Out-of-Order Simulator ***
*** ChampSim Multicore Out-of-Order Simulator ***







*** ChampSim Multicore Out-of-Order Simulator ***
*** ChampSim Multicore Out-of-Order Simulator ***

Warmup Instructions: 5000000
Simulation Instructions: 50000000
Configuration: 1
Number of CPUs: 1
LLC sets: 2048
LLC ways: 16

Off-chip DRAM Channels: 1 Width: 64-bit Data Rate: 1600 MT/s



*** ChampSim Multicore Out-of-Order Simulator ***

Warmup Instructions: 5000000
Simulation Instructions: 50000000
Configuration: 1
Number of CPUs: 1
LLC sets: 2048
LLC ways: 16
Off-chip DRAM Channels: 1 Width: 64-bit Data Rate: 1600 MT/s


*** ChampSim Multicore Out-of-Order Simulator ***

Warmup Instructions: 5000000
Simulation Instructions: 50000000
Configuration: 1
Number of CPUs: 1
LLC sets: 2048
LLC ways: 16
Off-chip DRAM Channels: 1 Width: 64-bit Data Rate: 1600 MT/s



*** ChampSim Multicore Out-of-Order Simulator ***

Warmup Instructions: 5000000
Simulation Instructions: 50000000
Configuration: 1
Number of CPUs: 1
LLC sets: 2048
LLC ways: 16
Off-chip DRAM Channels: 1 Width: 64-bit Data Rate: 1600 MT/s


*** ChampSim Multicore Out-of-Order Simulator ***

Warmup Instructions: 5000000
Simulation Instructions: 50000000
Configuration: 1
Number of CPUs: 1
LLC sets: 2048
LLC ways: 16
Off-chip DRAM Channels: 1 Width: 64-bit Data Rate: 1600 MT/s


*** ChampSim Multicore Out-of-Order Simulator ***

Warmup Instructions: 5000000
Simulation Instructions: 50000000
Configuration: 1
Number of CPUs: 1
LLC sets: 2048
LLC ways: 16
Off-chip DRAM Channels: 1 Width: 64-bit Data Rate: 1600 MT/s


*** ChampSim Multicore Out-of-Order Simulator ***

Warmup Instructions: 5000000
Simulation Instructions: 50000000
Configuration: 1
Number of CPUs: 1
LLC sets: 2048
LLC ways: 16
Off-chip DRAM Channels: 1 Width: 64-bit Data Rate: 1600 MT/s



*** ChampSim Multicore Out-of-Order Simulator ***

Warmup Instructions: 5000000
Simulation Instructions: 50000000
Configuration: 1
Number of CPUs: 1
*** ChampSim Multicore Out-of-Order Simulator ***
LLC sets: 2048

LLC ways: 16
Off-chip DRAM Channels: 1 Width: 64-bit Data Rate: 1600 MT/s

Warmup Instructions: 5000000
Simulation Instructions: 50000000
Configuration: 1
Number of CPUs: 1
LLC sets: 2048
LLC ways: 16
Off-chip DRAM Channels: 1 Width: 64-bit Data Rate: 1600 MT/s


Configuration: 1
Number of CPUs: 1
LLC sets: 2048
LLC ways: 16
Off-chip DRAM Channels: 1 Width: 64-bit Data Rate: 1600 MT/s



*** ChampSim Multicore Out-of-Order Simulator ***

Warmup Instructions: 5000000
Simulation Instructions: 50000000
Configuration: 1
*** ChampSim Multicore Out-of-Order Simulator ***
Number of CPUs: 1

LLC sets: 2048
LLC ways: 16
Off-chip DRAM Channels: 1 Width: 64-bit Data Rate: 1600 MT/s

Warmup Instructions: 5000000
Simulation Instructions: 50000000
Configuration: 1
Number of CPUs: 1
LLC sets: 2048
LLC ways: 16
Off-chip DRAM Channels: 1 Width: 64-bit Data Rate: 1600 MT/s



*** ChampSim Multicore Out-of-Order Simulator ***

*** ChampSim Multicore Out-of-Order Simulator ***

Warmup Instructions: 5000000
Simulation Instructions: 50000000
Configuration: 1
Number of CPUs: 1
LLC sets: 2048
LLC ways: 16

Off-chip DRAM Channels: 1 Width: 64-bit Data Rate: 1600 MT/s

*** ChampSim Multicore Out-of-Order Simulator ***

Warmup Instructions: 5000000
Simulation Instructions: 50000000
Configuration: 1
Warmup Instructions: 5000000
Number of CPUs: 1
Simulation Instructions: 50000000
LLC sets: 2048
LLC ways: 16
Configuration: 1
Number of CPUs: 1
LLC sets: 2048
LLC ways: 16
Off-chip DRAM Channels: 1 Width: 64-bit Data Rate: 1600 MT/s

Off-chip DRAM Channels: 1 Width: 64-bit Data Rate: 1600 MT/s

Warmup Instructions: 5000000
Simulation Instructions: 50000000
Configuration: 1
Number of CPUs: 1
LLC sets: 2048
LLC ways: 16
Off-chip DRAM Channels: 1 Width: 64-bit Data Rate: 1600 MT/s

Warmup Instructions: 5000000
*** ChampSim Multicore Out-of-Order Simulator ***
Simulation Instructions: 50000000
Configuration: 1

*** ChampSim Multicore Out-of-Order Simulator ***
Number of CPUs: 1
LLC sets: 2048
LLC ways: 16


Warmup Instructions: 5000000
Off-chip DRAM Channels: 1 Width: 64-bit Data Rate: 1600 MT/s

Simulation Instructions: 50000000
Configuration: 1
Number of CPUs: 1
LLC sets: 2048
LLC ways: 16
Off-chip DRAM Channels: 1 Width: 64-bit Data Rate: 1600 MT/s

Warmup Instructions: 5000000
Simulation Instructions: 50000000
*** ChampSim Multicore Out-of-Order Simulator ***

Configuration: 1
Number of CPUs: 1
LLC sets: 2048
LLC ways: 16
Warmup Instructions: 5000000
Simulation Instructions: 50000000
Off-chip DRAM Channels: 1 Width: 64-bit Data Rate: 1600 MT/s

Configuration: 1
Number of CPUs: 1
LLC sets: 2048
LLC ways: 16
Off-chip DRAM Channels: 1 Width: 64-bit Data Rate: 1600 MT/s

*** ChampSim Multicore Out-of-Order Simulator ***




*** ChampSim Multicore Out-of-Order Simulator ***


Warmup Instructions: 5000000
Simulation Instructions: 50000000
*** ChampSim Multicore Out-of-Order Simulator ***

Configuration: 1
Number of CPUs: 1
LLC sets: 2048
LLC ways: 16
Warmup Instructions: 5000000
Simulation Instructions: 50000000
*** ChampSim Multicore Out-of-Order Simulator ***
Off-chip DRAM Channels: 1 Width: 64-bit Data Rate: 1600 MT/s


Configuration: 1
Number of CPUs: 1
LLC sets: 2048
LLC ways: 16
Off-chip DRAM Channels: 1 Width: 64-bit Data Rate: 1600 MT/s

Warmup Instructions: 5000000
Simulation Instructions: 50000000
Warmup Instructions: 5000000
Configuration: 1
Number of CPUs: 1
LLC sets: 2048
LLC ways: 16
Simulation Instructions: 50000000
Off-chip DRAM Channels: 1 Width: 64-bit Data Rate: 1600 MT/s

Configuration: 1

Number of CPUs: 1
LLC sets: 2048
LLC ways: 16

Off-chip DRAM Channels: 1 Width: 64-bit Data Rate: 1600 MT/s

*** ChampSim Multicore Out-of-Order Simulator ***




*** ChampSim Multicore Out-of-Order Simulator ***


Warmup Instructions: 5000000
Simulation Instructions: 50000000
Configuration: 1

Number of CPUs: 1
LLC sets: 2048
LLC ways: 16
*** ChampSim Multicore Out-of-Order Simulator ***

*** ChampSim Multicore Out-of-Order Simulator ***
Warmup Instructions: 5000000
Simulation Instructions: 50000000

*** ChampSim Multicore Out-of-Order Simulator ***
Configuration: 1

Number of CPUs: 1
LLC sets: 2048
LLC ways: 16
Off-chip DRAM Channels: 1 Width: 64-bit Data Rate: 1600 MT/s

Off-chip DRAM Channels: 1 Width: 64-bit Data Rate: 1600 MT/s

Warmup Instructions: 5000000
Simulation Instructions: 50000000
Configuration: 1
Number of CPUs: 1
LLC sets: 2048
LLC ways: 16

Off-chip DRAM Channels: 1 Width: 64-bit Data Rate: 1600 MT/s


*** ChampSim Multicore Out-of-Order Simulator ***


Warmup Instructions: 5000000
Simulation Instructions: 50000000
Configuration: 1
Number of CPUs: 1
LLC sets: 2048
LLC ways: 16
*** ChampSim Multicore Out-of-Order Simulator ***
*** ChampSim Multicore Out-of-Order Simulator ***
Off-chip DRAM Channels: 1 Width: 64-bit Data Rate: 1600 MT/s



Warmup Instructions: 5000000
Warmup Instructions: 5000000
Simulation Instructions: 50000000
Simulation Instructions: 50000000
Configuration: 1
Configuration: 1
Number of CPUs: 1
Number of CPUs: 1
LLC sets: 2048
LLC sets: 2048
LLC ways: 16
LLC ways: 16
Off-chip DRAM Channels: 1 Width: 64-bit Data Rate: 1600 MT/s

Off-chip DRAM Channels: 1 Width: 64-bit Data Rate: 1600 MT/s


*** ChampSim Multicore Out-of-Order Simulator ***

Warmup Instructions: 5000000
Simulation Instructions: 50000000
Configuration: 1
Number of CPUs: 1
LLC sets: 2048
LLC ways: 16
Off-chip DRAM Channels: 1 Width: 64-bit Data Rate: 1600 MT/s

*** ChampSim Multicore Out-of-Order Simulator ***
*** ChampSim Multicore Out-of-Order Simulator ***


Warmup Instructions: 5000000
Warmup Instructions: 5000000
Simulation Instructions: 50000000
Simulation Instructions: 50000000
Configuration: 1
Configuration: 1
Number of CPUs: 1
Number of CPUs: 1
LLC sets: 2048
LLC sets: 2048
LLC ways: 16
LLC ways: 16
Off-chip DRAM Channels: 1 Width: 64-bit Data Rate: 1600 MT/s

Off-chip DRAM Channels: 1 Width: 64-bit Data Rate: 1600 MT/s

Warmup Instructions: 5000000
Simulation Instructions: 50000000
Configuration: 1
Number of CPUs: 1
LLC sets: 2048
LLC ways: 16
Off-chip DRAM Channels: 1 Width: 64-bit Data Rate: 1600 MT/s

*** ChampSim Multicore Out-of-Order Simulator ***

Warmup Instructions: 5000000
Simulation Instructions: 50000000
Configuration: 1
Number of CPUs: 1
LLC sets: 2048
LLC ways: 16
Off-chip DRAM Channels: 1 Width: 64-bit Data Rate: 1600 MT/s

Warmup Instructions: 5000000
*** ChampSim Multicore Out-of-Order Simulator ***
Simulation Instructions: 50000000
Configuration: 1
Number of CPUs: 1
LLC sets: 2048

LLC ways: 16
Off-chip DRAM Channels: 1 Width: 64-bit Data Rate: 1600 MT/s

Warmup Instructions: 5000000
Simulation Instructions: 50000000
Configuration: 1
Number of CPUs: 1
LLC sets: 2048
LLC ways: 16
Off-chip DRAM Channels: 1 Width: 64-bit Data Rate: 1600 MT/s

*** ChampSim Multicore Out-of-Order Simulator ***

Warmup Instructions: 5000000
Warmup Instructions: 5000000
Simulation Instructions: 50000000
Configuration: 1
Simulation Instructions: 50000000
Number of CPUs: 1
LLC sets: 2048
LLC ways: 16
Configuration: 1
Number of CPUs: 1
Off-chip DRAM Channels: 1 Width: 64-bit Data Rate: 1600 MT/s

LLC sets: 2048
LLC ways: 16
Off-chip DRAM Channels: 1 Width: 64-bit Data Rate: 1600 MT/s

*** ChampSim Multicore Out-of-Order Simulator ***

Warmup Instructions: 5000000
Simulation Instructions: 50000000
Configuration: 1
Number of CPUs: 1
LLC sets: 2048
LLC ways: 16
Off-chip DRAM Channels: 1 Width: 64-bit Data Rate: 1600 MT/s

CPU 0 runs /datasets/cs240c-wi22-a00-public/data/Assignment2-gz/libquantum_1735B.trace.gz
Heartbeat CPU 0 instructions: 1000003 cycles: 333345 heartbeat IPC: 2.9999 cumulative IPC: 2.9999 (Simulation time: 0 hr 1 min 50 sec) 
CPU 0 runs /datasets/cs240c-wi22-a00-public/data/Assignment2-gz/libquantum_1210B.trace.gz
Heartbeat CPU 0 instructions: 1000003 cycles: 314916 heartbeat IPC: 3.17546 cumulative IPC: 3.17546 (Simulation time: 0 hr 1 min 56 sec) 
CPU 0 runs /datasets/cs240c-wi22-a00-public/data/Assignment2-gz/libquantum_964B.trace.gz
Heartbeat CPU 0 instructions: 1000001 cycles: 333344 heartbeat IPC: 2.99991 cumulative IPC: 2.99991 (Simulation time: 0 hr 1 min 56 sec) 
CPU 0 runs /datasets/cs240c-wi22-a00-public/data/Assignment2-gz/calculix_2670B.trace.gz
Heartbeat CPU 0 instructions: 1000003 cycles: 520140 heartbeat IPC: 1.92257 cumulative IPC: 1.92257 (Simulation time: 0 hr 2 min 8 sec) 
CPU 0 runs /datasets/cs240c-wi22-a00-public/data/Assignment2-gz/calculix_2655B.trace.gz
Heartbeat CPU 0 instructions: 1000003 cycles: 371402 heartbeat IPC: 2.69251 cumulative IPC: 2.69251 (Simulation time: 0 hr 2 min 11 sec) 
CPU 0 runs /datasets/cs240c-wi22-a00-public/data/Assignment2-gz/zeusmp_300B.trace.gz
Heartbeat CPU 0 instructions: 1000003 cycles: 508391 heartbeat IPC: 1.967 cumulative IPC: 1.967 (Simulation time: 0 hr 2 min 25 sec) 
CPU 0 runs /datasets/cs240c-wi22-a00-public/data/Assignment2-gz/zeusmp_100B.trace.gz
Heartbeat CPU 0 instructions: 1000002 cycles: 464468 heartbeat IPC: 2.15301 cumulative IPC: 2.15301 (Simulation time: 0 hr 2 min 29 sec) 
CPU 0 runs /datasets/cs240c-wi22-a00-public/data/Assignment2-gz/soplex_205B.trace.gz
Heartbeat CPU 0 instructions: 1000000 cycles: 394357 heartbeat IPC: 2.53577 cumulative IPC: 2.53577 (Simulation time: 0 hr 2 min 29 sec) 
CPU 0 runs /datasets/cs240c-wi22-a00-public/data/Assignment2-gz/sphinx3_1339B.trace.gz
Heartbeat CPU 0 instructions: 1000001 cycles: 338437 heartbeat IPC: 2.95476 cumulative IPC: 2.95476 (Simulation time: 0 hr 2 min 29 sec) 
CPU 0 runs /datasets/cs240c-wi22-a00-public/data/Assignment2-gz/omnetpp_17B.trace.gz
Heartbeat CPU 0 instructions: 1000000 cycles: 559780 heartbeat IPC: 1.78642 cumulative IPC: 1.78642 (Simulation time: 0 hr 2 min 32 sec) 
CPU 0 runs /datasets/cs240c-wi22-a00-public/data/Assignment2-gz/sphinx3_2520B.trace.gz
Heartbeat CPU 0 instructions: 1000003 cycles: 338265 heartbeat IPC: 2.95627 cumulative IPC: 2.95627 (Simulation time: 0 hr 2 min 32 sec) 
CPU 0 runs /datasets/cs240c-wi22-a00-public/data/Assignment2-gz/zeusmp_600B.trace.gz
Heartbeat CPU 0 instructions: 1000000 cycles: 407507 heartbeat IPC: 2.45395 cumulative IPC: 2.45395 (Simulation time: 0 hr 2 min 33 sec) 
CPU 0 runs /datasets/cs240c-wi22-a00-public/data/Assignment2-gz/soplex_66B.trace.gz
Heartbeat CPU 0 instructions: 1000003 cycles: 416344 heartbeat IPC: 2.40187 cumulative IPC: 2.40187 (Simulation time: 0 hr 2 min 35 sec) 
CPU 0 runs /datasets/cs240c-wi22-a00-public/data/Assignment2-gz/bzip2_259B.trace.gz
Heartbeat CPU 0 instructions: 1000002 cycles: 428954 heartbeat IPC: 2.33126 cumulative IPC: 2.33126 (Simulation time: 0 hr 2 min 39 sec) 
CPU 0 runs /datasets/cs240c-wi22-a00-public/data/Assignment2-gz/omnetpp_4B.trace.gz
Heartbeat CPU 0 instructions: 1000001 cycles: 566835 heartbeat IPC: 1.76418 cumulative IPC: 1.76418 (Simulation time: 0 hr 2 min 40 sec) 
CPU 0 runs /datasets/cs240c-wi22-a00-public/data/Assignment2-gz/GemsFDTD_716B.trace.gz
Heartbeat CPU 0 instructions: 1000000 cycles: 415494 heartbeat IPC: 2.40677 cumulative IPC: 2.40677 (Simulation time: 0 hr 2 min 40 sec) 
CPU 0 runs /datasets/cs240c-wi22-a00-public/data/Assignment2-gz/wrf_1650B.trace.gz
Heartbeat CPU 0 instructions: 1000000 cycles: 514412 heartbeat IPC: 1.94397 cumulative IPC: 1.94397 (Simulation time: 0 hr 2 min 40 sec) 
CPU 0 runs /datasets/cs240c-wi22-a00-public/data/Assignment2-gz/bzip2_281B.trace.gz
Heartbeat CPU 0 instructions: 1000000 cycles: 445723 heartbeat IPC: 2.24355 cumulative IPC: 2.24355 (Simulation time: 0 hr 2 min 41 sec) 
CPU 0 runs /datasets/cs240c-wi22-a00-public/data/Assignment2-gz/sphinx3_883B.trace.gz
Heartbeat CPU 0 instructions: 1000003 cycles: 413061 heartbeat IPC: 2.42096 cumulative IPC: 2.42096 (Simulation time: 0 hr 2 min 41 sec) 
CPU 0 runs /datasets/cs240c-wi22-a00-public/data/Assignment2-gz/lbm_94B.trace.gz
Heartbeat CPU 0 instructions: 1000000 cycles: 422411 heartbeat IPC: 2.36736 cumulative IPC: 2.36736 (Simulation time: 0 hr 2 min 43 sec) 
CPU 0 runs /datasets/cs240c-wi22-a00-public/data/Assignment2-gz/lbm_564B.trace.gz
Heartbeat CPU 0 instructions: 1000000 cycles: 390238 heartbeat IPC: 2.56254 cumulative IPC: 2.56254 (Simulation time: 0 hr 2 min 46 sec) 
CPU 0 runs /datasets/cs240c-wi22-a00-public/data/Assignment2-gz/milc_744B.trace.gz
Heartbeat CPU 0 instructions: 1000000 cycles: 383399 heartbeat IPC: 2.60825 cumulative IPC: 2.60825 (Simulation time: 0 hr 2 min 46 sec) 
CPU 0 runs /datasets/cs240c-wi22-a00-public/data/Assignment2-gz/lbm_1004B.trace.gz
Heartbeat CPU 0 instructions: 1000002 cycles: 391495 heartbeat IPC: 2.55432 cumulative IPC: 2.55432 (Simulation time: 0 hr 2 min 46 sec) 
CPU 0 runs /datasets/cs240c-wi22-a00-public/data/Assignment2-gz/milc_360B.trace.gz
Heartbeat CPU 0 instructions: 1000001 cycles: 549889 heartbeat IPC: 1.81855 cumulative IPC: 1.81855 (Simulation time: 0 hr 2 min 49 sec) 
CPU 0 runs /datasets/cs240c-wi22-a00-public/data/Assignment2-gz/calculix_3812B.trace.gz
Heartbeat CPU 0 instructions: 1000001 cycles: 475279 heartbeat IPC: 2.10403 cumulative IPC: 2.10403 (Simulation time: 0 hr 2 min 51 sec) 
CPU 0 runs /datasets/cs240c-wi22-a00-public/data/Assignment2-gz/wrf_1212B.trace.gz
Heartbeat CPU 0 instructions: 1000001 cycles: 599253 heartbeat IPC: 1.66875 cumulative IPC: 1.66875 (Simulation time: 0 hr 2 min 51 sec) 
CPU 0 runs /datasets/cs240c-wi22-a00-public/data/Assignment2-gz/milc_409B.trace.gz
Heartbeat CPU 0 instructions: 1000000 cycles: 402731 heartbeat IPC: 2.48305 cumulative IPC: 2.48305 (Simulation time: 0 hr 2 min 52 sec) 
CPU 0 runs /datasets/cs240c-wi22-a00-public/data/Assignment2-gz/perlbench_105B.trace.gz
Heartbeat CPU 0 instructions: 1000000 cycles: 578082 heartbeat IPC: 1.72986 cumulative IPC: 1.72986 (Simulation time: 0 hr 2 min 53 sec) 
CPU 0 runs /datasets/cs240c-wi22-a00-public/data/Assignment2-gz/astar_23B.trace.gz
Heartbeat CPU 0 instructions: 1000000 cycles: 360107 heartbeat IPC: 2.77695 cumulative IPC: 2.77695 (Simulation time: 0 hr 2 min 53 sec) 
CPU 0 runs /datasets/cs240c-wi22-a00-public/data/Assignment2-gz/bzip2_183B.trace.gz
Heartbeat CPU 0 instructions: 1000000 cycles: 448069 heartbeat IPC: 2.2318 cumulative IPC: 2.2318 (Simulation time: 0 hr 2 min 56 sec) 
CPU 0 runs /datasets/cs240c-wi22-a00-public/data/Assignment2-gz/perlbench_135B.trace.gz
Heartbeat CPU 0 instructions: 1000000 cycles: 601490 heartbeat IPC: 1.66254 cumulative IPC: 1.66254 (Simulation time: 0 hr 2 min 59 sec) 
CPU 0 runs /datasets/cs240c-wi22-a00-public/data/Assignment2-gz/astar_163B.trace.gz
Heartbeat CPU 0 instructions: 1000002 cycles: 530774 heartbeat IPC: 1.88404 cumulative IPC: 1.88404 (Simulation time: 0 hr 3 min 0 sec) 
CPU 0 runs /datasets/cs240c-wi22-a00-public/data/Assignment2-gz/leslie3d_1116B.trace.gz
Heartbeat CPU 0 instructions: 1000001 cycles: 532936 heartbeat IPC: 1.8764 cumulative IPC: 1.8764 (Simulation time: 0 hr 3 min 6 sec) 
CPU 0 runs /datasets/cs240c-wi22-a00-public/data/Assignment2-gz/soplex_217B.trace.gz
Heartbeat CPU 0 instructions: 1000000 cycles: 437367 heartbeat IPC: 2.28641 cumulative IPC: 2.28641 (Simulation time: 0 hr 3 min 6 sec) 
CPU 0 runs /datasets/cs240c-wi22-a00-public/data/Assignment2-gz/leslie3d_1186B.trace.gz
Heartbeat CPU 0 instructions: 1000002 cycles: 557793 heartbeat IPC: 1.79278 cumulative IPC: 1.79278 (Simulation time: 0 hr 3 min 9 sec) 
CPU 0 runs /datasets/cs240c-wi22-a00-public/data/Assignment2-gz/gcc_39B.trace.gz
Heartbeat CPU 0 instructions: 1000000 cycles: 510392 heartbeat IPC: 1.95928 cumulative IPC: 1.95928 (Simulation time: 0 hr 3 min 11 sec) 
CPU 0 runs /datasets/cs240c-wi22-a00-public/data/Assignment2-gz/perlbench_53B.trace.gz
Heartbeat CPU 0 instructions: 1000000 cycles: 617122 heartbeat IPC: 1.62043 cumulative IPC: 1.62043 (Simulation time: 0 hr 3 min 11 sec) 
CPU 0 runs /datasets/cs240c-wi22-a00-public/data/Assignment2-gz/mcf_158B.trace.gz
Heartbeat CPU 0 instructions: 1000002 cycles: 496588 heartbeat IPC: 2.01375 cumulative IPC: 2.01375 (Simulation time: 0 hr 3 min 11 sec) 
CPU 0 runs /datasets/cs240c-wi22-a00-public/data/Assignment2-gz/wrf_1228B.trace.gz
Heartbeat CPU 0 instructions: 1000003 cycles: 590333 heartbeat IPC: 1.69396 cumulative IPC: 1.69396 (Simulation time: 0 hr 3 min 15 sec) 
CPU 0 runs /datasets/cs240c-wi22-a00-public/data/Assignment2-gz/omnetpp_340B.trace.gz
Heartbeat CPU 0 instructions: 1000001 cycles: 578280 heartbeat IPC: 1.72927 cumulative IPC: 1.72927 (Simulation time: 0 hr 3 min 16 sec) 
CPU 0 runs /datasets/cs240c-wi22-a00-public/data/Assignment2-gz/leslie3d_94B.trace.gz
Heartbeat CPU 0 instructions: 1000003 cycles: 592147 heartbeat IPC: 1.68877 cumulative IPC: 1.68877 (Simulation time: 0 hr 3 min 17 sec) 
CPU 0 runs /datasets/cs240c-wi22-a00-public/data/Assignment2-gz/gcc_56B.trace.gz
Heartbeat CPU 0 instructions: 1000003 cycles: 954224 heartbeat IPC: 1.04798 cumulative IPC: 1.04798 (Simulation time: 0 hr 3 min 19 sec) 
CPU 0 runs /datasets/cs240c-wi22-a00-public/data/Assignment2-gz/mcf_250B.trace.gz
Heartbeat CPU 0 instructions: 1000000 cycles: 526982 heartbeat IPC: 1.8976 cumulative IPC: 1.8976 (Simulation time: 0 hr 3 min 23 sec) 
CPU 0 runs /datasets/cs240c-wi22-a00-public/data/Assignment2-gz/GemsFDTD_109B.trace.gz
Heartbeat CPU 0 instructions: 1000002 cycles: 577063 heartbeat IPC: 1.73292 cumulative IPC: 1.73292 (Simulation time: 0 hr 3 min 23 sec) 
CPU 0 runs /datasets/cs240c-wi22-a00-public/data/Assignment2-gz/mcf_46B.trace.gz
Heartbeat CPU 0 instructions: 1000002 cycles: 482127 heartbeat IPC: 2.07415 cumulative IPC: 2.07415 (Simulation time: 0 hr 3 min 23 sec) 
CPU 0 runs /datasets/cs240c-wi22-a00-public/data/Assignment2-gz/gcc_13B.trace.gz
Heartbeat CPU 0 instructions: 1000000 cycles: 644728 heartbeat IPC: 1.55104 cumulative IPC: 1.55104 (Simulation time: 0 hr 3 min 24 sec) 
Heartbeat CPU 0 instructions: 2000003 cycles: 666677 heartbeat IPC: 3.00001 cumulative IPC: 2.99996 (Simulation time: 0 hr 3 min 31 sec) 
CPU 0 runs /datasets/cs240c-wi22-a00-public/data/Assignment2-gz/cactusADM_734B.trace.gz
Heartbeat CPU 0 instructions: 1000003 cycles: 592365 heartbeat IPC: 1.68815 cumulative IPC: 1.68815 (Simulation time: 0 hr 3 min 32 sec) 
CPU 0 runs /datasets/cs240c-wi22-a00-public/data/Assignment2-gz/cactusADM_1039B.trace.gz
Heartbeat CPU 0 instructions: 1000000 cycles: 595112 heartbeat IPC: 1.68036 cumulative IPC: 1.68036 (Simulation time: 0 hr 3 min 32 sec) 
CPU 0 runs /datasets/cs240c-wi22-a00-public/data/Assignment2-gz/GemsFDTD_712B.trace.gz
Heartbeat CPU 0 instructions: 1000003 cycles: 633083 heartbeat IPC: 1.57958 cumulative IPC: 1.57958 (Simulation time: 0 hr 3 min 35 sec) 
Heartbeat CPU 0 instructions: 2000000 cycles: 630173 heartbeat IPC: 3.17201 cumulative IPC: 3.17373 (Simulation time: 0 hr 3 min 39 sec) 
CPU 0 runs /datasets/cs240c-wi22-a00-public/data/Assignment2-gz/astar_313B.trace.gz
Heartbeat CPU 0 instructions: 1000001 cycles: 678650 heartbeat IPC: 1.47352 cumulative IPC: 1.47352 (Simulation time: 0 hr 3 min 41 sec) 
CPU 0 runs /datasets/cs240c-wi22-a00-public/data/Assignment2-gz/cactusADM_1495B.trace.gz
Heartbeat CPU 0 instructions: 1000003 cycles: 593354 heartbeat IPC: 1.68534 cumulative IPC: 1.68534 (Simulation time: 0 hr 3 min 42 sec) 
Heartbeat CPU 0 instructions: 2000001 cycles: 666677 heartbeat IPC: 3 cumulative IPC: 2.99995 (Simulation time: 0 hr 3 min 49 sec) 
Heartbeat CPU 0 instructions: 2000001 cycles: 1039679 heartbeat IPC: 1.92478 cumulative IPC: 1.92367 (Simulation time: 0 hr 4 min 18 sec) 
Heartbeat CPU 0 instructions: 2000001 cycles: 746536 heartbeat IPC: 2.66571 cumulative IPC: 2.67904 (Simulation time: 0 hr 4 min 27 sec) 
Heartbeat CPU 0 instructions: 2000001 cycles: 928928 heartbeat IPC: 2.15304 cumulative IPC: 2.15302 (Simulation time: 0 hr 4 min 47 sec) 
Heartbeat CPU 0 instructions: 2000003 cycles: 1059161 heartbeat IPC: 1.81564 cumulative IPC: 1.88829 (Simulation time: 0 hr 4 min 50 sec) 
Heartbeat CPU 0 instructions: 2000001 cycles: 691941 heartbeat IPC: 2.82882 cumulative IPC: 2.89042 (Simulation time: 0 hr 4 min 57 sec) 
Heartbeat CPU 0 instructions: 2000000 cycles: 821532 heartbeat IPC: 2.44815 cumulative IPC: 2.43448 (Simulation time: 0 hr 5 min 5 sec) 
Heartbeat CPU 0 instructions: 2000002 cycles: 1133969 heartbeat IPC: 1.74159 cumulative IPC: 1.76372 (Simulation time: 0 hr 5 min 5 sec) 
Heartbeat CPU 0 instructions: 2000001 cycles: 814374 heartbeat IPC: 2.45781 cumulative IPC: 2.45588 (Simulation time: 0 hr 5 min 9 sec) 
Heartbeat CPU 0 instructions: 2000003 cycles: 861405 heartbeat IPC: 2.3124 cumulative IPC: 2.32179 (Simulation time: 0 hr 5 min 10 sec) 
Heartbeat CPU 0 instructions: 2000002 cycles: 890222 heartbeat IPC: 2.01668 cumulative IPC: 2.24663 (Simulation time: 0 hr 5 min 12 sec) 
Heartbeat CPU 0 instructions: 3000001 cycles: 989047 heartbeat IPC: 3.10202 cumulative IPC: 3.03322 (Simulation time: 0 hr 5 min 13 sec) 
Heartbeat CPU 0 instructions: 2000002 cycles: 842809 heartbeat IPC: 2.34486 cumulative IPC: 2.37302 (Simulation time: 0 hr 5 min 14 sec) 
Heartbeat CPU 0 instructions: 2000000 cycles: 812709 heartbeat IPC: 2.56214 cumulative IPC: 2.46091 (Simulation time: 0 hr 5 min 17 sec) 
Heartbeat CPU 0 instructions: 2000002 cycles: 949743 heartbeat IPC: 2.10764 cumulative IPC: 2.10583 (Simulation time: 0 hr 5 min 19 sec) 
Heartbeat CPU 0 instructions: 2000003 cycles: 899728 heartbeat IPC: 2.20263 cumulative IPC: 2.2229 (Simulation time: 0 hr 5 min 20 sec) 
Heartbeat CPU 0 instructions: 2000001 cycles: 1135266 heartbeat IPC: 1.75923 cumulative IPC: 1.7617 (Simulation time: 0 hr 5 min 20 sec) 
Heartbeat CPU 0 instructions: 2000000 cycles: 1028660 heartbeat IPC: 1.94459 cumulative IPC: 1.94428 (Simulation time: 0 hr 5 min 23 sec) 
Heartbeat CPU 0 instructions: 2000003 cycles: 830875 heartbeat IPC: 2.40744 cumulative IPC: 2.4071 (Simulation time: 0 hr 5 min 23 sec) 
Heartbeat CPU 0 instructions: 2000001 cycles: 782981 heartbeat IPC: 2.55437 cumulative IPC: 2.55434 (Simulation time: 0 hr 5 min 29 sec) 
Heartbeat CPU 0 instructions: 2000000 cycles: 735301 heartbeat IPC: 2.51866 cumulative IPC: 2.71997 (Simulation time: 0 hr 5 min 29 sec) 
Heartbeat CPU 0 instructions: 2000003 cycles: 785321 heartbeat IPC: 2.53112 cumulative IPC: 2.54673 (Simulation time: 0 hr 5 min 33 sec) 
Heartbeat CPU 0 instructions: 2000003 cycles: 1099779 heartbeat IPC: 1.81855 cumulative IPC: 1.81855 (Simulation time: 0 hr 5 min 33 sec) 
Heartbeat CPU 0 instructions: 3000003 cycles: 945982 heartbeat IPC: 3.16648 cumulative IPC: 3.17131 (Simulation time: 0 hr 5 min 33 sec) 
Heartbeat CPU 0 instructions: 2000001 cycles: 766759 heartbeat IPC: 2.60852 cumulative IPC: 2.60838 (Simulation time: 0 hr 5 min 36 sec) 
Heartbeat CPU 0 instructions: 2000001 cycles: 1164382 heartbeat IPC: 1.70561 cumulative IPC: 1.71765 (Simulation time: 0 hr 5 min 37 sec) 
Heartbeat CPU 0 instructions: 2000000 cycles: 1198243 heartbeat IPC: 1.66948 cumulative IPC: 1.66911 (Simulation time: 0 hr 5 min 39 sec) 
Heartbeat CPU 0 instructions: 2000001 cycles: 721007 heartbeat IPC: 2.77085 cumulative IPC: 2.7739 (Simulation time: 0 hr 5 min 45 sec) 
Heartbeat CPU 0 instructions: 2000003 cycles: 797984 heartbeat IPC: 2.77303 cumulative IPC: 2.50632 (Simulation time: 0 hr 5 min 49 sec) 
Heartbeat CPU 0 instructions: 3000000 cycles: 1000009 heartbeat IPC: 3.00001 cumulative IPC: 2.99997 (Simulation time: 0 hr 5 min 50 sec) 
Heartbeat CPU 0 instructions: 2000003 cycles: 1060018 heartbeat IPC: 1.88949 cumulative IPC: 1.88676 (Simulation time: 0 hr 5 min 57 sec) 
Heartbeat CPU 0 instructions: 2000001 cycles: 951159 heartbeat IPC: 1.98772 cumulative IPC: 2.1027 (Simulation time: 0 hr 5 min 59 sec) 
Heartbeat CPU 0 instructions: 2000000 cycles: 882610 heartbeat IPC: 2.08386 cumulative IPC: 2.26601 (Simulation time: 0 hr 6 min 6 sec) 
Heartbeat CPU 0 instructions: 2000002 cycles: 1020757 heartbeat IPC: 1.95939 cumulative IPC: 1.95933 (Simulation time: 0 hr 6 min 9 sec) 
Heartbeat CPU 0 instructions: 2000003 cycles: 1066398 heartbeat IPC: 1.87455 cumulative IPC: 1.87548 (Simulation time: 0 hr 6 min 12 sec) 
Heartbeat CPU 0 instructions: 2000002 cycles: 1100530 heartbeat IPC: 1.96003 cumulative IPC: 1.81731 (Simulation time: 0 hr 6 min 13 sec) 
Heartbeat CPU 0 instructions: 2000002 cycles: 992279 heartbeat IPC: 2.01739 cumulative IPC: 2.01556 (Simulation time: 0 hr 6 min 13 sec) 
Heartbeat CPU 0 instructions: 2000000 cycles: 1212073 heartbeat IPC: 1.63778 cumulative IPC: 1.65007 (Simulation time: 0 hr 6 min 15 sec) 
Heartbeat CPU 0 instructions: 3000001 cycles: 1559976 heartbeat IPC: 1.92198 cumulative IPC: 1.92311 (Simulation time: 0 hr 6 min 16 sec) 
Heartbeat CPU 0 instructions: 2000000 cycles: 1162467 heartbeat IPC: 1.71178 cumulative IPC: 1.72048 (Simulation time: 0 hr 6 min 27 sec) 
Heartbeat CPU 0 instructions: 2000001 cycles: 1255808 heartbeat IPC: 1.56572 cumulative IPC: 1.5926 (Simulation time: 0 hr 6 min 30 sec) 
Heartbeat CPU 0 instructions: 2000001 cycles: 1898520 heartbeat IPC: 1.05899 cumulative IPC: 1.05345 (Simulation time: 0 hr 6 min 30 sec) 
Heartbeat CPU 0 instructions: 2000002 cycles: 1206641 heartbeat IPC: 1.62735 cumulative IPC: 1.6575 (Simulation time: 0 hr 6 min 34 sec) 
Heartbeat CPU 0 instructions: 2000000 cycles: 1204525 heartbeat IPC: 1.54623 cumulative IPC: 1.66041 (Simulation time: 0 hr 6 min 36 sec) 
Heartbeat CPU 0 instructions: 2000003 cycles: 1028916 heartbeat IPC: 1.9923 cumulative IPC: 1.9438 (Simulation time: 0 hr 6 min 36 sec) 
Heartbeat CPU 0 instructions: 2000003 cycles: 1154104 heartbeat IPC: 1.73298 cumulative IPC: 1.73295 (Simulation time: 0 hr 6 min 39 sec) 
Heartbeat CPU 0 instructions: 3000002 cycles: 1121180 heartbeat IPC: 2.6692 cumulative IPC: 2.67575 (Simulation time: 0 hr 6 min 40 sec) 
Heartbeat CPU 0 instructions: 2000001 cycles: 1257217 heartbeat IPC: 1.63268 cumulative IPC: 1.59082 (Simulation time: 0 hr 6 min 47 sec) 
Heartbeat CPU 0 instructions: 2000002 cycles: 967646 heartbeat IPC: 2.05965 cumulative IPC: 2.06687 (Simulation time: 0 hr 6 min 47 sec) 
Heartbeat CPU 0 instructions: 2000001 cycles: 1185295 heartbeat IPC: 1.68654 cumulative IPC: 1.68734 (Simulation time: 0 hr 6 min 58 sec) 
Heartbeat CPU 0 instructions: 4000000 cycles: 1290772 heartbeat IPC: 3.31427 cumulative IPC: 3.09892 (Simulation time: 0 hr 7 min 2 sec) 
Heartbeat CPU 0 instructions: 3000003 cycles: 1393617 heartbeat IPC: 2.15198 cumulative IPC: 2.15267 (Simulation time: 0 hr 7 min 4 sec) 
Heartbeat CPU 0 instructions: 3000002 cycles: 1602081 heartbeat IPC: 1.84189 cumulative IPC: 1.87257 (Simulation time: 0 hr 7 min 6 sec) 
Heartbeat CPU 0 instructions: 2000000 cycles: 1186182 heartbeat IPC: 1.68682 cumulative IPC: 1.68608 (Simulation time: 0 hr 7 min 6 sec) 
Heartbeat CPU 0 instructions: 2000002 cycles: 1190036 heartbeat IPC: 1.68089 cumulative IPC: 1.68062 (Simulation time: 0 hr 7 min 7 sec) 
Heartbeat CPU 0 instructions: 2000000 cycles: 1266011 heartbeat IPC: 1.57995 cumulative IPC: 1.57977 (Simulation time: 0 hr 7 min 19 sec) 
Heartbeat CPU 0 instructions: 3000003 cycles: 1294919 heartbeat IPC: 2.11244 cumulative IPC: 2.31675 (Simulation time: 0 hr 7 min 22 sec) 
Heartbeat CPU 0 instructions: 2000003 cycles: 1269580 heartbeat IPC: 1.69225 cumulative IPC: 1.57533 (Simulation time: 0 hr 7 min 28 sec) 
Heartbeat CPU 0 instructions: 4000000 cycles: 1260334 heartbeat IPC: 3.18114 cumulative IPC: 3.17376 (Simulation time: 0 hr 7 min 29 sec) 
Heartbeat CPU 0 instructions: 3000000 cycles: 1081973 heartbeat IPC: 2.56389 cumulative IPC: 2.77271 (Simulation time: 0 hr 7 min 30 sec) 
Heartbeat CPU 0 instructions: 3000002 cycles: 1425613 heartbeat IPC: 2.10141 cumulative IPC: 2.10436 (Simulation time: 0 hr 7 min 31 sec) 
Heartbeat CPU 0 instructions: 3000001 cycles: 1769228 heartbeat IPC: 1.57416 cumulative IPC: 1.69566 (Simulation time: 0 hr 7 min 38 sec) 
Heartbeat CPU 0 instructions: 4000000 cycles: 1333342 heartbeat IPC: 3 cumulative IPC: 2.99998 (Simulation time: 0 hr 7 min 49 sec) 
Heartbeat CPU 0 instructions: 3000001 cycles: 1287146 heartbeat IPC: 2.34884 cumulative IPC: 2.33074 (Simulation time: 0 hr 7 min 50 sec) 
Heartbeat CPU 0 instructions: 3000003 cycles: 1221893 heartbeat IPC: 2.45388 cumulative IPC: 2.45521 (Simulation time: 0 hr 7 min 51 sec) 
Heartbeat CPU 0 instructions: 3000002 cycles: 1314518 heartbeat IPC: 2.41086 cumulative IPC: 2.28221 (Simulation time: 0 hr 7 min 53 sec) 
Heartbeat CPU 0 instructions: 3000000 cycles: 1211869 heartbeat IPC: 2.50526 cumulative IPC: 2.47552 (Simulation time: 0 hr 7 min 55 sec) 
Heartbeat CPU 0 instructions: 3000001 cycles: 1546521 heartbeat IPC: 1.93102 cumulative IPC: 1.93984 (Simulation time: 0 hr 7 min 55 sec) 
Heartbeat CPU 0 instructions: 3000003 cycles: 1252417 heartbeat IPC: 2.44136 cumulative IPC: 2.39537 (Simulation time: 0 hr 7 min 56 sec) 
Heartbeat CPU 0 instructions: 3000000 cycles: 1286935 heartbeat IPC: 2.19269 cumulative IPC: 2.33112 (Simulation time: 0 hr 8 min 4 sec) 
Heartbeat CPU 0 instructions: 3000001 cycles: 1649612 heartbeat IPC: 1.81873 cumulative IPC: 1.81861 (Simulation time: 0 hr 8 min 7 sec) 
Heartbeat CPU 0 instructions: 3000003 cycles: 1181536 heartbeat IPC: 2.24098 cumulative IPC: 2.53907 (Simulation time: 0 hr 8 min 7 sec) 
Heartbeat CPU 0 instructions: 3000001 cycles: 1722590 heartbeat IPC: 1.70264 cumulative IPC: 1.74156 (Simulation time: 0 hr 8 min 12 sec) 
Heartbeat CPU 0 instructions: 3000001 cycles: 1726618 heartbeat IPC: 1.77861 cumulative IPC: 1.7375 (Simulation time: 0 hr 8 min 16 sec) 
Heartbeat CPU 0 instructions: 4000000 cycles: 2081696 heartbeat IPC: 1.91674 cumulative IPC: 1.92151 (Simulation time: 0 hr 8 min 17 sec) 
Heartbeat CPU 0 instructions: 3000001 cycles: 1150170 heartbeat IPC: 2.60817 cumulative IPC: 2.60831 (Simulation time: 0 hr 8 min 17 sec) 
Heartbeat CPU 0 instructions: 3000001 cycles: 1174398 heartbeat IPC: 2.55482 cumulative IPC: 2.5545 (Simulation time: 0 hr 8 min 21 sec) 
Heartbeat CPU 0 instructions: 3000002 cycles: 1175571 heartbeat IPC: 2.56246 cumulative IPC: 2.55195 (Simulation time: 0 hr 8 min 29 sec) 
Heartbeat CPU 0 instructions: 3000001 cycles: 1797630 heartbeat IPC: 1.66837 cumulative IPC: 1.66886 (Simulation time: 0 hr 8 min 34 sec) 
Heartbeat CPU 0 instructions: 3000000 cycles: 1360070 heartbeat IPC: 2.12834 cumulative IPC: 2.20577 (Simulation time: 0 hr 8 min 36 sec) 
Heartbeat CPU 0 instructions: 3000000 cycles: 1079958 heartbeat IPC: 2.78589 cumulative IPC: 2.77789 (Simulation time: 0 hr 8 min 39 sec) 
Heartbeat CPU 0 instructions: 3000000 cycles: 1248969 heartbeat IPC: 2.21736 cumulative IPC: 2.40198 (Simulation time: 0 hr 8 min 48 sec) 
Heartbeat CPU 0 instructions: 5000000 cycles: 1592498 heartbeat IPC: 3.31427 cumulative IPC: 3.13972 (Simulation time: 0 hr 8 min 56 sec) 

Warmup complete CPU 0 instructions: 5000004 cycles: 1592499 (Simulation time: 0 hr 8 min 56 sec) 

Heartbeat CPU 0 instructions: 3000002 cycles: 1589730 heartbeat IPC: 1.88782 cumulative IPC: 1.88711 (Simulation time: 0 hr 8 min 56 sec) 
Heartbeat CPU 0 instructions: 4000000 cycles: 1487470 heartbeat IPC: 2.73007 cumulative IPC: 2.68913 (Simulation time: 0 hr 9 min 1 sec) 
Heartbeat CPU 0 instructions: 3000001 cycles: 1457648 heartbeat IPC: 1.97438 cumulative IPC: 2.05811 (Simulation time: 0 hr 9 min 15 sec) 
Heartbeat CPU 0 instructions: 5000000 cycles: 1576820 heartbeat IPC: 3.1597 cumulative IPC: 3.17094 (Simulation time: 0 hr 9 min 20 sec) 

Warmup complete CPU 0 instructions: 5000004 cycles: 1576821 (Simulation time: 0 hr 9 min 20 sec) 

Heartbeat CPU 0 instructions: 4000000 cycles: 1858062 heartbeat IPC: 2.1531 cumulative IPC: 2.15278 (Simulation time: 0 hr 9 min 20 sec) 
Heartbeat CPU 0 instructions: 3000003 cycles: 1600517 heartbeat IPC: 1.87224 cumulative IPC: 1.8744 (Simulation time: 0 hr 9 min 22 sec) 
Heartbeat CPU 0 instructions: 3000002 cycles: 1529819 heartbeat IPC: 1.9644 cumulative IPC: 1.96102 (Simulation time: 0 hr 9 min 22 sec) 
Heartbeat CPU 0 instructions: 3000000 cycles: 1488552 heartbeat IPC: 2.01502 cumulative IPC: 2.01538 (Simulation time: 0 hr 9 min 30 sec) 
Heartbeat CPU 0 instructions: 3000000 cycles: 1708674 heartbeat IPC: 1.64434 cumulative IPC: 1.75575 (Simulation time: 0 hr 9 min 32 sec) 
Heartbeat CPU 0 instructions: 4000000 cycles: 1633291 heartbeat IPC: 2.95532 cumulative IPC: 2.44904 (Simulation time: 0 hr 9 min 33 sec) 
Heartbeat CPU 0 instructions: 4000000 cycles: 2087846 heartbeat IPC: 2.0586 cumulative IPC: 1.91585 (Simulation time: 0 hr 9 min 36 sec) 
Heartbeat CPU 0 instructions: 3000001 cycles: 2885882 heartbeat IPC: 1.0128 cumulative IPC: 1.03954 (Simulation time: 0 hr 9 min 38 sec) 
Heartbeat CPU 0 instructions: 5000001 cycles: 1666677 heartbeat IPC: 2.99999 cumulative IPC: 2.99998 (Simulation time: 0 hr 9 min 41 sec) 

Warmup complete CPU 0 instructions: 5000001 cycles: 1666677 (Simulation time: 0 hr 9 min 41 sec) 

Heartbeat CPU 0 instructions: 3000000 cycles: 1836606 heartbeat IPC: 1.6012 cumulative IPC: 1.63345 (Simulation time: 0 hr 9 min 44 sec) 
Heartbeat CPU 0 instructions: 3000000 cycles: 1730667 heartbeat IPC: 1.73441 cumulative IPC: 1.73344 (Simulation time: 0 hr 9 min 44 sec) 
Heartbeat CPU 0 instructions: 3000001 cycles: 1760250 heartbeat IPC: 1.67285 cumulative IPC: 1.7043 (Simulation time: 0 hr 9 min 44 sec) 
Heartbeat CPU 0 instructions: 4000000 cycles: 1895811 heartbeat IPC: 2.12676 cumulative IPC: 2.10992 (Simulation time: 0 hr 9 min 47 sec) 
Heartbeat CPU 0 instructions: 3000003 cycles: 1662911 heartbeat IPC: 1.28156 cumulative IPC: 1.80407 (Simulation time: 0 hr 9 min 50 sec) 
Heartbeat CPU 0 instructions: 3000002 cycles: 1512400 heartbeat IPC: 2.06832 cumulative IPC: 1.9836 (Simulation time: 0 hr 9 min 50 sec) 
Heartbeat CPU 0 instructions: 3000002 cycles: 1912368 heartbeat IPC: 1.52309 cumulative IPC: 1.56874 (Simulation time: 0 hr 9 min 51 sec) 
Heartbeat CPU 0 instructions: 4000000 cycles: 1526801 heartbeat IPC: 2.24806 cumulative IPC: 2.61986 (Simulation time: 0 hr 9 min 53 sec) 
Heartbeat CPU 0 instructions: 3000002 cycles: 1854530 heartbeat IPC: 1.54347 cumulative IPC: 1.61766 (Simulation time: 0 hr 9 min 59 sec) 
Heartbeat CPU 0 instructions: 3000000 cycles: 1735178 heartbeat IPC: 2.09222 cumulative IPC: 1.72893 (Simulation time: 0 hr 10 min 4 sec) 
Heartbeat CPU 0 instructions: 3000000 cycles: 1851620 heartbeat IPC: 1.54537 cumulative IPC: 1.6202 (Simulation time: 0 hr 10 min 5 sec) 
Heartbeat CPU 0 instructions: 3000003 cycles: 1779362 heartbeat IPC: 1.68583 cumulative IPC: 1.686 (Simulation time: 0 hr 10 min 13 sec) 
Heartbeat CPU 0 instructions: 4000000 cycles: 1685678 heartbeat IPC: 2.50921 cumulative IPC: 2.37293 (Simulation time: 0 hr 10 min 16 sec) 
Heartbeat CPU 0 instructions: 4000000 cycles: 1629601 heartbeat IPC: 2.45273 cumulative IPC: 2.45459 (Simulation time: 0 hr 10 min 20 sec) 
Heartbeat CPU 0 instructions: 4000000 cycles: 2334161 heartbeat IPC: 1.77012 cumulative IPC: 1.71368 (Simulation time: 0 hr 10 min 23 sec) 
Heartbeat CPU 0 instructions: 4000000 cycles: 1637645 heartbeat IPC: 2.59586 cumulative IPC: 2.44253 (Simulation time: 0 hr 10 min 24 sec) 
Heartbeat CPU 0 instructions: 3000000 cycles: 1484249 heartbeat IPC: 1.93572 cumulative IPC: 2.02122 (Simulation time: 0 hr 10 min 24 sec) 
Heartbeat CPU 0 instructions: 5000000 cycles: 2602077 heartbeat IPC: 1.92167 cumulative IPC: 1.92154 (Simulation time: 0 hr 10 min 29 sec) 

Warmup complete CPU 0 instructions: 5000001 cycles: 2602078 (Simulation time: 0 hr 10 min 29 sec) 

Heartbeat CPU 0 instructions: 3000003 cycles: 1778084 heartbeat IPC: 1.68694 cumulative IPC: 1.68721 (Simulation time: 0 hr 10 min 29 sec) 
Heartbeat CPU 0 instructions: 4000000 cycles: 1753060 heartbeat IPC: 2.28028 cumulative IPC: 2.28172 (Simulation time: 0 hr 10 min 30 sec) 
Heartbeat CPU 0 instructions: 4000000 cycles: 2064469 heartbeat IPC: 1.93069 cumulative IPC: 1.93754 (Simulation time: 0 hr 10 min 31 sec) 
Heartbeat CPU 0 instructions: 3000003 cycles: 1785063 heartbeat IPC: 1.6806 cumulative IPC: 1.68061 (Simulation time: 0 hr 10 min 37 sec) 
Heartbeat CPU 0 instructions: 4000000 cycles: 1632043 heartbeat IPC: 2.37997 cumulative IPC: 2.45092 (Simulation time: 0 hr 10 min 45 sec) 
Heartbeat CPU 0 instructions: 4000000 cycles: 1519954 heartbeat IPC: 2.95492 cumulative IPC: 2.63166 (Simulation time: 0 hr 10 min 48 sec) 
Heartbeat CPU 0 instructions: 4000000 cycles: 1744228 heartbeat IPC: 2.18678 cumulative IPC: 2.29328 (Simulation time: 0 hr 10 min 52 sec) 
Heartbeat CPU 0 instructions: 4000000 cycles: 2291778 heartbeat IPC: 1.75689 cumulative IPC: 1.74537 (Simulation time: 0 hr 10 min 55 sec) 
Heartbeat CPU 0 instructions: 4000000 cycles: 2306048 heartbeat IPC: 1.72583 cumulative IPC: 1.73457 (Simulation time: 0 hr 10 min 58 sec) 
Heartbeat CPU 0 instructions: 4000000 cycles: 2199464 heartbeat IPC: 1.81867 cumulative IPC: 1.81862 (Simulation time: 0 hr 11 min 6 sec) 
Heartbeat CPU 0 instructions: 4000000 cycles: 1570639 heartbeat IPC: 2.52371 cumulative IPC: 2.54673 (Simulation time: 0 hr 11 min 9 sec) 
Heartbeat CPU 0 instructions: 4000000 cycles: 1533552 heartbeat IPC: 2.60836 cumulative IPC: 2.60832 (Simulation time: 0 hr 11 min 11 sec) 
Heartbeat CPU 0 instructions: 3000003 cycles: 1947032 heartbeat IPC: 1.47612 cumulative IPC: 1.54081 (Simulation time: 0 hr 11 min 13 sec) 
Heartbeat CPU 0 instructions: 3000000 cycles: 1898500 heartbeat IPC: 1.58106 cumulative IPC: 1.58019 (Simulation time: 0 hr 11 min 14 sec) 
Heartbeat CPU 0 instructions: 4000000 cycles: 1722581 heartbeat IPC: 2.75854 cumulative IPC: 2.3221 (Simulation time: 0 hr 11 min 19 sec) 
Heartbeat CPU 0 instructions: 4000000 cycles: 1565781 heartbeat IPC: 2.56272 cumulative IPC: 2.55464 (Simulation time: 0 hr 11 min 19 sec) 
Heartbeat CPU 0 instructions: 5000003 cycles: 1860159 heartbeat IPC: 2.68321 cumulative IPC: 2.68794 (Simulation time: 0 hr 11 min 20 sec) 

Warmup complete CPU 0 instructions: 5000003 cycles: 1860159 (Simulation time: 0 hr 11 min 20 sec) 

Heartbeat CPU 0 instructions: 4000000 cycles: 2396228 heartbeat IPC: 1.67057 cumulative IPC: 1.66929 (Simulation time: 0 hr 11 min 24 sec) 
Heartbeat CPU 0 instructions: 6000001 cycles: 5165586 heartbeat IPC: 0.27987 cumulative IPC: 0.279869 (Simulation time: 0 hr 11 min 33 sec) 
Heartbeat CPU 0 instructions: 4000000 cycles: 1441419 heartbeat IPC: 2.76655 cumulative IPC: 2.77504 (Simulation time: 0 hr 11 min 38 sec) 
Heartbeat CPU 0 instructions: 5000000 cycles: 1987091 heartbeat IPC: 2.82646 cumulative IPC: 2.51624 (Simulation time: 0 hr 11 min 40 sec) 

Warmup complete CPU 0 instructions: 5000004 cycles: 1987092 (Simulation time: 0 hr 11 min 40 sec) 

Heartbeat CPU 0 instructions: 4000000 cycles: 2119462 heartbeat IPC: 1.88774 cumulative IPC: 1.88727 (Simulation time: 0 hr 11 min 49 sec) 
Heartbeat CPU 0 instructions: 5000003 cycles: 2322491 heartbeat IPC: 2.15319 cumulative IPC: 2.15286 (Simulation time: 0 hr 11 min 51 sec) 

Warmup complete CPU 0 instructions: 5000003 cycles: 2322491 (Simulation time: 0 hr 11 min 51 sec) 

Heartbeat CPU 0 instructions: 4000000 cycles: 1686724 heartbeat IPC: 2.28438 cumulative IPC: 2.37146 (Simulation time: 0 hr 11 min 55 sec) 
Heartbeat CPU 0 instructions: 5000001 cycles: 2571024 heartbeat IPC: 2.06963 cumulative IPC: 1.94475 (Simulation time: 0 hr 12 min 5 sec) 

Warmup complete CPU 0 instructions: 5000001 cycles: 2571024 (Simulation time: 0 hr 12 min 5 sec) 

Heartbeat CPU 0 instructions: 6000001 cycles: 4802736 heartbeat IPC: 0.30999 cumulative IPC: 0.309989 (Simulation time: 0 hr 12 min 6 sec) 
Heartbeat CPU 0 instructions: 5000003 cycles: 1865235 heartbeat IPC: 2.95479 cumulative IPC: 2.68063 (Simulation time: 0 hr 12 min 11 sec) 

Warmup complete CPU 0 instructions: 5000003 cycles: 1865235 (Simulation time: 0 hr 12 min 11 sec) 

Heartbeat CPU 0 instructions: 5000000 cycles: 2346967 heartbeat IPC: 2.21653 cumulative IPC: 2.13041 (Simulation time: 0 hr 12 min 14 sec) 

Warmup complete CPU 0 instructions: 5000003 cycles: 2346968 (Simulation time: 0 hr 12 min 14 sec) 

Heartbeat CPU 0 instructions: 4000000 cycles: 2133411 heartbeat IPC: 1.87654 cumulative IPC: 1.87493 (Simulation time: 0 hr 12 min 25 sec) 
Heartbeat CPU 0 instructions: 4000000 cycles: 1983556 heartbeat IPC: 2.02019 cumulative IPC: 2.01658 (Simulation time: 0 hr 12 min 43 sec) 
Heartbeat CPU 0 instructions: 4000000 cycles: 1928242 heartbeat IPC: 2.12497 cumulative IPC: 2.07443 (Simulation time: 0 hr 12 min 44 sec) 
Heartbeat CPU 0 instructions: 6000002 cycles: 3664216 heartbeat IPC: 0.500616 cumulative IPC: 0.500616 (Simulation time: 0 hr 12 min 48 sec) 
Heartbeat CPU 0 instructions: 5000001 cycles: 2037319 heartbeat IPC: 2.45268 cumulative IPC: 2.45421 (Simulation time: 0 hr 12 min 51 sec) 

Warmup complete CPU 0 instructions: 5000001 cycles: 2037319 (Simulation time: 0 hr 12 min 51 sec) 

Heartbeat CPU 0 instructions: 5000001 cycles: 2104126 heartbeat IPC: 2.38979 cumulative IPC: 2.37628 (Simulation time: 0 hr 12 min 51 sec) 

Warmup complete CPU 0 instructions: 5000001 cycles: 2104126 (Simulation time: 0 hr 12 min 51 sec) 

Heartbeat CPU 0 instructions: 4000000 cycles: 2319463 heartbeat IPC: 1.63723 cumulative IPC: 1.72454 (Simulation time: 0 hr 12 min 52 sec) 
Heartbeat CPU 0 instructions: 4000000 cycles: 2528843 heartbeat IPC: 1.62212 cumulative IPC: 1.58175 (Simulation time: 0 hr 12 min 52 sec) 
Heartbeat CPU 0 instructions: 4000000 cycles: 2307197 heartbeat IPC: 1.73452 cumulative IPC: 1.73371 (Simulation time: 0 hr 12 min 52 sec) 
Heartbeat CPU 0 instructions: 6000001 cycles: 3075679 heartbeat IPC: 2.11148 cumulative IPC: 2.11148 (Simulation time: 0 hr 12 min 55 sec) 
Heartbeat CPU 0 instructions: 4000000 cycles: 3848631 heartbeat IPC: 1.03869 cumulative IPC: 1.03933 (Simulation time: 0 hr 12 min 58 sec) 
Heartbeat CPU 0 instructions: 4000000 cycles: 2038994 heartbeat IPC: 1.96396 cumulative IPC: 1.96175 (Simulation time: 0 hr 13 min 0 sec) 
Heartbeat CPU 0 instructions: 5000000 cycles: 2038408 heartbeat IPC: 2.49524 cumulative IPC: 2.45289 (Simulation time: 0 hr 13 min 0 sec) 

Warmup complete CPU 0 instructions: 5000001 cycles: 2038410 (Simulation time: 0 hr 13 min 0 sec) 

Heartbeat CPU 0 instructions: 5000002 cycles: 2174895 heartbeat IPC: 2.3706 cumulative IPC: 2.29896 (Simulation time: 0 hr 13 min 2 sec) 

Warmup complete CPU 0 instructions: 5000002 cycles: 2174895 (Simulation time: 0 hr 13 min 2 sec) 

Heartbeat CPU 0 instructions: 5000002 cycles: 2893170 heartbeat IPC: 1.78888 cumulative IPC: 1.72821 (Simulation time: 0 hr 13 min 2 sec) 

Warmup complete CPU 0 instructions: 5000002 cycles: 2893170 (Simulation time: 0 hr 13 min 2 sec) 

Heartbeat CPU 0 instructions: 4000000 cycles: 2381489 heartbeat IPC: 1.60968 cumulative IPC: 1.67962 (Simulation time: 0 hr 13 min 4 sec) 
Heartbeat CPU 0 instructions: 4000000 cycles: 2372043 heartbeat IPC: 1.68724 cumulative IPC: 1.68631 (Simulation time: 0 hr 13 min 10 sec) 
Heartbeat CPU 0 instructions: 4000000 cycles: 2497342 heartbeat IPC: 1.51346 cumulative IPC: 1.6017 (Simulation time: 0 hr 13 min 12 sec) 
Heartbeat CPU 0 instructions: 5000001 cycles: 2022321 heartbeat IPC: 2.56228 cumulative IPC: 2.47241 (Simulation time: 0 hr 13 min 14 sec) 

Warmup complete CPU 0 instructions: 5000001 cycles: 2022321 (Simulation time: 0 hr 13 min 14 sec) 

Heartbeat CPU 0 instructions: 5000001 cycles: 2582394 heartbeat IPC: 1.93078 cumulative IPC: 1.93619 (Simulation time: 0 hr 13 min 18 sec) 

Warmup complete CPU 0 instructions: 5000001 cycles: 2582394 (Simulation time: 0 hr 13 min 18 sec) 

Heartbeat CPU 0 instructions: 4000000 cycles: 2006767 heartbeat IPC: 2.02278 cumulative IPC: 1.99326 (Simulation time: 0 hr 13 min 26 sec) 
Heartbeat CPU 0 instructions: 4000000 cycles: 2502060 heartbeat IPC: 1.54433 cumulative IPC: 1.59868 (Simulation time: 0 hr 13 min 26 sec) 
Heartbeat CPU 0 instructions: 4000000 cycles: 2212947 heartbeat IPC: 2.09306 cumulative IPC: 1.80754 (Simulation time: 0 hr 13 min 27 sec) 
Heartbeat CPU 0 instructions: 5000000 cycles: 2865807 heartbeat IPC: 1.74207 cumulative IPC: 1.74471 (Simulation time: 0 hr 13 min 32 sec) 

Warmup complete CPU 0 instructions: 5000002 cycles: 2865808 (Simulation time: 0 hr 13 min 32 sec) 

Heartbeat CPU 0 instructions: 4000000 cycles: 2452455 heartbeat IPC: 1.66435 cumulative IPC: 1.63102 (Simulation time: 0 hr 13 min 38 sec) 
Heartbeat CPU 0 instructions: 4000000 cycles: 2443121 heartbeat IPC: 1.2817 cumulative IPC: 1.63725 (Simulation time: 0 hr 13 min 42 sec) 
Heartbeat CPU 0 instructions: 5000000 cycles: 2159515 heartbeat IPC: 2.40797 cumulative IPC: 2.31533 (Simulation time: 0 hr 13 min 49 sec) 

Warmup complete CPU 0 instructions: 5000001 cycles: 2159516 (Simulation time: 0 hr 13 min 49 sec) 

Heartbeat CPU 0 instructions: 5000001 cycles: 1897210 heartbeat IPC: 2.65072 cumulative IPC: 2.63545 (Simulation time: 0 hr 13 min 51 sec) 

Warmup complete CPU 0 instructions: 5000001 cycles: 1897210 (Simulation time: 0 hr 13 min 51 sec) 

Heartbeat CPU 0 instructions: 5000002 cycles: 1962096 heartbeat IPC: 2.55456 cumulative IPC: 2.5483 (Simulation time: 0 hr 13 min 51 sec) 

Warmup complete CPU 0 instructions: 5000002 cycles: 1962096 (Simulation time: 0 hr 13 min 51 sec) 

Heartbeat CPU 0 instructions: 6000003 cycles: 2440238 heartbeat IPC: 1.7239 cumulative IPC: 1.7239 (Simulation time: 0 hr 13 min 51 sec) 
Heartbeat CPU 0 instructions: 5000003 cycles: 2884306 heartbeat IPC: 1.72934 cumulative IPC: 1.73352 (Simulation time: 0 hr 13 min 55 sec) 

Warmup complete CPU 0 instructions: 5000003 cycles: 2884306 (Simulation time: 0 hr 13 min 55 sec) 

Heartbeat CPU 0 instructions: 4000000 cycles: 2370621 heartbeat IPC: 1.68765 cumulative IPC: 1.68732 (Simulation time: 0 hr 13 min 56 sec) 
Heartbeat CPU 0 instructions: 5000000 cycles: 1960940 heartbeat IPC: 2.53063 cumulative IPC: 2.5498 (Simulation time: 0 hr 14 min 10 sec) 

Warmup complete CPU 0 instructions: 5000004 cycles: 1960941 (Simulation time: 0 hr 14 min 10 sec) 

Heartbeat CPU 0 instructions: 5000001 cycles: 2171582 heartbeat IPC: 2.22717 cumulative IPC: 2.30247 (Simulation time: 0 hr 14 min 11 sec) 

Warmup complete CPU 0 instructions: 5000001 cycles: 2171582 (Simulation time: 0 hr 14 min 11 sec) 

Heartbeat CPU 0 instructions: 5000002 cycles: 2749347 heartbeat IPC: 1.81857 cumulative IPC: 1.81861 (Simulation time: 0 hr 14 min 12 sec) 

Warmup complete CPU 0 instructions: 5000002 cycles: 2749347 (Simulation time: 0 hr 14 min 12 sec) 

Heartbeat CPU 0 instructions: 4000000 cycles: 2380257 heartbeat IPC: 1.68012 cumulative IPC: 1.68049 (Simulation time: 0 hr 14 min 12 sec) 
Heartbeat CPU 0 instructions: 7000002 cycles: 8740163 heartbeat IPC: 0.279754 cumulative IPC: 0.279811 (Simulation time: 0 hr 14 min 17 sec) 
Heartbeat CPU 0 instructions: 5000001 cycles: 1916947 heartbeat IPC: 2.60828 cumulative IPC: 2.60831 (Simulation time: 0 hr 14 min 21 sec) 

Warmup complete CPU 0 instructions: 5000001 cycles: 1916947 (Simulation time: 0 hr 14 min 21 sec) 

Heartbeat CPU 0 instructions: 5000000 cycles: 2995748 heartbeat IPC: 1.668 cumulative IPC: 1.66903 (Simulation time: 0 hr 14 min 21 sec) 

Warmup complete CPU 0 instructions: 5000001 cycles: 2995749 (Simulation time: 0 hr 14 min 21 sec) 

Heartbeat CPU 0 instructions: 4000000 cycles: 1995140 heartbeat IPC: 1.95736 cumulative IPC: 2.00487 (Simulation time: 0 hr 14 min 21 sec) 
Heartbeat CPU 0 instructions: 5000001 cycles: 2071734 heartbeat IPC: 2.59734 cumulative IPC: 2.41344 (Simulation time: 0 hr 14 min 28 sec) 

Warmup complete CPU 0 instructions: 5000001 cycles: 2071734 (Simulation time: 0 hr 14 min 28 sec) 

Heartbeat CPU 0 instructions: 5000000 cycles: 1803506 heartbeat IPC: 2.76177 cumulative IPC: 2.77238 (Simulation time: 0 hr 14 min 30 sec) 

Warmup complete CPU 0 instructions: 5000004 cycles: 1803507 (Simulation time: 0 hr 14 min 30 sec) 

Heartbeat CPU 0 instructions: 6000001 cycles: 2984440 heartbeat IPC: 1.5687 cumulative IPC: 1.56869 (Simulation time: 0 hr 14 min 31 sec) 
Heartbeat CPU 0 instructions: 6000000 cycles: 4586925 heartbeat IPC: 0.38464 cumulative IPC: 0.384639 (Simulation time: 0 hr 14 min 42 sec) 
Heartbeat CPU 0 instructions: 6000001 cycles: 3243967 heartbeat IPC: 1.08521 cumulative IPC: 1.08521 (Simulation time: 0 hr 14 min 44 sec) 
Heartbeat CPU 0 instructions: 6000000 cycles: 3438294 heartbeat IPC: 1.15304 cumulative IPC: 1.15304 (Simulation time: 0 hr 14 min 44 sec) 
Heartbeat CPU 0 instructions: 5000000 cycles: 2651055 heartbeat IPC: 1.88114 cumulative IPC: 1.88604 (Simulation time: 0 hr 14 min 51 sec) 

Warmup complete CPU 0 instructions: 5000001 cycles: 2651058 (Simulation time: 0 hr 14 min 52 sec) 

Heartbeat CPU 0 instructions: 4000000 cycles: 2624894 heartbeat IPC: 1.47522 cumulative IPC: 1.52387 (Simulation time: 0 hr 14 min 52 sec) 
Heartbeat CPU 0 instructions: 7000001 cycles: 7987048 heartbeat IPC: 0.31404 cumulative IPC: 0.312001 (Simulation time: 0 hr 15 min 12 sec) 
Heartbeat CPU 0 instructions: 4000000 cycles: 2530676 heartbeat IPC: 1.58184 cumulative IPC: 1.58061 (Simulation time: 0 hr 15 min 21 sec) 
Heartbeat CPU 0 instructions: 7000001 cycles: 3552712 heartbeat IPC: 2.09629 cumulative IPC: 2.10386 (Simulation time: 0 hr 15 min 23 sec) 
Heartbeat CPU 0 instructions: 5000001 cycles: 2666043 heartbeat IPC: 1.87747 cumulative IPC: 1.87544 (Simulation time: 0 hr 15 min 27 sec) 

Warmup complete CPU 0 instructions: 5000001 cycles: 2666043 (Simulation time: 0 hr 15 min 27 sec) 

Heartbeat CPU 0 instructions: 6000002 cycles: 3131508 heartbeat IPC: 0.973349 cumulative IPC: 0.973349 (Simulation time: 0 hr 15 min 31 sec) 
Heartbeat CPU 0 instructions: 6000000 cycles: 3557675 heartbeat IPC: 0.723179 cumulative IPC: 0.723179 (Simulation time: 0 hr 15 min 34 sec) 
Heartbeat CPU 0 instructions: 6000002 cycles: 4057878 heartbeat IPC: 0.45607 cumulative IPC: 0.45607 (Simulation time: 0 hr 15 min 38 sec) 
Heartbeat CPU 0 instructions: 7000001 cycles: 5832948 heartbeat IPC: 0.461098 cumulative IPC: 0.480046 (Simulation time: 0 hr 15 min 53 sec) 
Heartbeat CPU 0 instructions: 6000000 cycles: 5751897 heartbeat IPC: 0.349805 cumulative IPC: 0.349805 (Simulation time: 0 hr 15 min 59 sec) 
Heartbeat CPU 0 instructions: 6000000 cycles: 2905684 heartbeat IPC: 1.15159 cumulative IPC: 1.15159 (Simulation time: 0 hr 15 min 59 sec) 
Heartbeat CPU 0 instructions: 5000000 cycles: 2964991 heartbeat IPC: 1.68649 cumulative IPC: 1.68635 (Simulation time: 0 hr 16 min 3 sec) 

Warmup complete CPU 0 instructions: 5000004 cycles: 2964992 (Simulation time: 0 hr 16 min 3 sec) 

Heartbeat CPU 0 instructions: 6000000 cycles: 4825152 heartbeat IPC: 0.358842 cumulative IPC: 0.358842 (Simulation time: 0 hr 16 min 4 sec) 
Heartbeat CPU 0 instructions: 5000002 cycles: 2477145 heartbeat IPC: 2.02598 cumulative IPC: 2.01845 (Simulation time: 0 hr 16 min 7 sec) 

Warmup complete CPU 0 instructions: 5000002 cycles: 2477145 (Simulation time: 0 hr 16 min 7 sec) 

Heartbeat CPU 0 instructions: 5000001 cycles: 3158592 heartbeat IPC: 1.58794 cumulative IPC: 1.58298 (Simulation time: 0 hr 16 min 14 sec) 

Warmup complete CPU 0 instructions: 5000001 cycles: 3158592 (Simulation time: 0 hr 16 min 14 sec) 

Heartbeat CPU 0 instructions: 5000002 cycles: 4738257 heartbeat IPC: 1.12407 cumulative IPC: 1.05524 (Simulation time: 0 hr 16 min 15 sec) 

Warmup complete CPU 0 instructions: 5000002 cycles: 4738257 (Simulation time: 0 hr 16 min 15 sec) 

Heartbeat CPU 0 instructions: 5000000 cycles: 2425411 heartbeat IPC: 2.01139 cumulative IPC: 2.06151 (Simulation time: 0 hr 16 min 17 sec) 

Warmup complete CPU 0 instructions: 5000004 cycles: 2425412 (Simulation time: 0 hr 16 min 17 sec) 

Heartbeat CPU 0 instructions: 5000000 cycles: 2884154 heartbeat IPC: 1.73323 cumulative IPC: 1.73361 (Simulation time: 0 hr 16 min 17 sec) 

Warmup complete CPU 0 instructions: 5000004 cycles: 2884155 (Simulation time: 0 hr 16 min 17 sec) 

Heartbeat CPU 0 instructions: 5000002 cycles: 2957045 heartbeat IPC: 1.73745 cumulative IPC: 1.69088 (Simulation time: 0 hr 16 min 19 sec) 

Warmup complete CPU 0 instructions: 5000002 cycles: 2957045 (Simulation time: 0 hr 16 min 19 sec) 

Heartbeat CPU 0 instructions: 6000000 cycles: 3988279 heartbeat IPC: 0.508657 cumulative IPC: 0.508657 (Simulation time: 0 hr 16 min 19 sec) 
Heartbeat CPU 0 instructions: 5000000 cycles: 3014423 heartbeat IPC: 1.43893 cumulative IPC: 1.65869 (Simulation time: 0 hr 16 min 20 sec) 

Warmup complete CPU 0 instructions: 5000004 cycles: 3014425 (Simulation time: 0 hr 16 min 20 sec) 

Heartbeat CPU 0 instructions: 7000000 cycles: 2988311 heartbeat IPC: 1.82457 cumulative IPC: 1.77281 (Simulation time: 0 hr 16 min 26 sec) 
Heartbeat CPU 0 instructions: 6000002 cycles: 5709454 heartbeat IPC: 0.351662 cumulative IPC: 0.351661 (Simulation time: 0 hr 16 min 29 sec) 
Heartbeat CPU 0 instructions: 5000001 cycles: 3085110 heartbeat IPC: 1.70135 cumulative IPC: 1.62069 (Simulation time: 0 hr 16 min 32 sec) 

Warmup complete CPU 0 instructions: 5000001 cycles: 3085110 (Simulation time: 0 hr 16 min 32 sec) 

Heartbeat CPU 0 instructions: 5000002 cycles: 3062650 heartbeat IPC: 1.78384 cumulative IPC: 1.63257 (Simulation time: 0 hr 16 min 44 sec) 

Warmup complete CPU 0 instructions: 5000002 cycles: 3062650 (Simulation time: 0 hr 16 min 44 sec) 

Heartbeat CPU 0 instructions: 6000003 cycles: 4216266 heartbeat IPC: 0.612044 cumulative IPC: 0.612044 (Simulation time: 0 hr 16 min 46 sec) 
Heartbeat CPU 0 instructions: 5000002 cycles: 2497677 heartbeat IPC: 2.03704 cumulative IPC: 2.00186 (Simulation time: 0 hr 16 min 48 sec) 

Warmup complete CPU 0 instructions: 5000002 cycles: 2497677 (Simulation time: 0 hr 16 min 48 sec) 

Heartbeat CPU 0 instructions: 7000000 cycles: 3542426 heartbeat IPC: 1.79216 cumulative IPC: 1.673 (Simulation time: 0 hr 16 min 48 sec) 
Heartbeat CPU 0 instructions: 8000000 cycles: 12108516 heartbeat IPC: 0.29688 cumulative IPC: 0.285279 (Simulation time: 0 hr 16 min 52 sec) 
Heartbeat CPU 0 instructions: 5000003 cycles: 2548012 heartbeat IPC: 1.96457 cumulative IPC: 1.96232 (Simulation time: 0 hr 16 min 54 sec) 

Warmup complete CPU 0 instructions: 5000003 cycles: 2548012 (Simulation time: 0 hr 16 min 54 sec) 

Heartbeat CPU 0 instructions: 5000002 cycles: 2691200 heartbeat IPC: 2.09095 cumulative IPC: 1.85791 (Simulation time: 0 hr 17 min 3 sec) 

Warmup complete CPU 0 instructions: 5000002 cycles: 2691200 (Simulation time: 0 hr 17 min 3 sec) 

Heartbeat CPU 0 instructions: 5000000 cycles: 3058482 heartbeat IPC: 1.65009 cumulative IPC: 1.6348 (Simulation time: 0 hr 17 min 3 sec) 

Warmup complete CPU 0 instructions: 5000002 cycles: 3058483 (Simulation time: 0 hr 17 min 3 sec) 

Heartbeat CPU 0 instructions: 5000000 cycles: 3123523 heartbeat IPC: 1.46972 cumulative IPC: 1.60076 (Simulation time: 0 hr 17 min 8 sec) 

Warmup complete CPU 0 instructions: 5000004 cycles: 3123524 (Simulation time: 0 hr 17 min 8 sec) 

Heartbeat CPU 0 instructions: 6000000 cycles: 4586796 heartbeat IPC: 0.359287 cumulative IPC: 0.359286 (Simulation time: 0 hr 17 min 9 sec) 
Heartbeat CPU 0 instructions: 5000000 cycles: 2963700 heartbeat IPC: 1.68612 cumulative IPC: 1.68708 (Simulation time: 0 hr 17 min 18 sec) 

Warmup complete CPU 0 instructions: 5000004 cycles: 2963701 (Simulation time: 0 hr 17 min 18 sec) 

Heartbeat CPU 0 instructions: 6000002 cycles: 3786392 heartbeat IPC: 0.548157 cumulative IPC: 0.548157 (Simulation time: 0 hr 17 min 19 sec) 
Heartbeat CPU 0 instructions: 6000000 cycles: 3804055 heartbeat IPC: 0.57726 cumulative IPC: 0.57726 (Simulation time: 0 hr 17 min 21 sec) 
Heartbeat CPU 0 instructions: 7000000 cycles: 4389880 heartbeat IPC: 1.05088 cumulative IPC: 1.09959 (Simulation time: 0 hr 17 min 23 sec) 
Heartbeat CPU 0 instructions: 6000002 cycles: 3555638 heartbeat IPC: 0.602981 cumulative IPC: 0.602981 (Simulation time: 0 hr 17 min 30 sec) 
Heartbeat CPU 0 instructions: 7000001 cycles: 4166477 heartbeat IPC: 1.084 cumulative IPC: 1.08461 (Simulation time: 0 hr 17 min 32 sec) 
Heartbeat CPU 0 instructions: 8000000 cycles: 4026025 heartbeat IPC: 2.11276 cumulative IPC: 2.10682 (Simulation time: 0 hr 17 min 42 sec) 
Heartbeat CPU 0 instructions: 6000000 cycles: 3507343 heartbeat IPC: 0.741934 cumulative IPC: 0.741934 (Simulation time: 0 hr 17 min 43 sec) 
Heartbeat CPU 0 instructions: 6000001 cycles: 4695339 heartbeat IPC: 0.513876 cumulative IPC: 0.513876 (Simulation time: 0 hr 17 min 45 sec) 
Heartbeat CPU 0 instructions: 6000002 cycles: 3799082 heartbeat IPC: 0.544029 cumulative IPC: 0.544027 (Simulation time: 0 hr 17 min 48 sec) 
Heartbeat CPU 0 instructions: 6000000 cycles: 3852702 heartbeat IPC: 0.516594 cumulative IPC: 0.516594 (Simulation time: 0 hr 17 min 48 sec) 
Heartbeat CPU 0 instructions: 7000000 cycles: 7125684 heartbeat IPC: 0.393893 cumulative IPC: 0.389211 (Simulation time: 0 hr 17 min 53 sec) 
Heartbeat CPU 0 instructions: 6000003 cycles: 5270109 heartbeat IPC: 0.419146 cumulative IPC: 0.419146 (Simulation time: 0 hr 17 min 55 sec) 
Heartbeat CPU 0 instructions: 5000000 cycles: 2477840 heartbeat IPC: 2.07168 cumulative IPC: 2.01789 (Simulation time: 0 hr 17 min 58 sec) 

Warmup complete CPU 0 instructions: 5000004 cycles: 2477841 (Simulation time: 0 hr 17 min 58 sec) 

Heartbeat CPU 0 instructions: 5000001 cycles: 2975033 heartbeat IPC: 1.68131 cumulative IPC: 1.68065 (Simulation time: 0 hr 18 min 1 sec) 

Warmup complete CPU 0 instructions: 5000001 cycles: 2975033 (Simulation time: 0 hr 18 min 1 sec) 

Heartbeat CPU 0 instructions: 6000001 cycles: 4812623 heartbeat IPC: 0.550396 cumulative IPC: 0.550396 (Simulation time: 0 hr 18 min 2 sec) 
Heartbeat CPU 0 instructions: 7000003 cycles: 4155251 heartbeat IPC: 0.976809 cumulative IPC: 0.975076 (Simulation time: 0 hr 18 min 3 sec) 
Heartbeat CPU 0 instructions: 7000002 cycles: 4763128 heartbeat IPC: 0.829565 cumulative IPC: 0.772728 (Simulation time: 0 hr 18 min 5 sec) 
Heartbeat CPU 0 instructions: 8000000 cycles: 11186317 heartbeat IPC: 0.312571 cumulative IPC: 0.312191 (Simulation time: 0 hr 18 min 14 sec) 
Heartbeat CPU 0 instructions: 6000000 cycles: 4821906 heartbeat IPC: 0.460649 cumulative IPC: 0.460649 (Simulation time: 0 hr 18 min 19 sec) 
Heartbeat CPU 0 instructions: 7000001 cycles: 5581945 heartbeat IPC: 0.656138 cumulative IPC: 0.53811 (Simulation time: 0 hr 18 min 33 sec) 
Heartbeat CPU 0 instructions: 6000000 cycles: 6755332 heartbeat IPC: 0.218162 cumulative IPC: 0.218162 (Simulation time: 0 hr 18 min 34 sec) 
Heartbeat CPU 0 instructions: 5000002 cycles: 3302781 heartbeat IPC: 1.47518 cumulative IPC: 1.51388 (Simulation time: 0 hr 18 min 40 sec) 

Warmup complete CPU 0 instructions: 5000002 cycles: 3302781 (Simulation time: 0 hr 18 min 40 sec) 

Heartbeat CPU 0 instructions: 7000002 cycles: 7445321 heartbeat IPC: 0.381656 cumulative IPC: 0.369897 (Simulation time: 0 hr 18 min 46 sec) 
Heartbeat CPU 0 instructions: 8000000 cycles: 4095056 heartbeat IPC: 1.80953 cumulative IPC: 1.71616 (Simulation time: 0 hr 18 min 49 sec) 
Heartbeat CPU 0 instructions: 8000000 cycles: 3535767 heartbeat IPC: 1.82663 cumulative IPC: 1.79039 (Simulation time: 0 hr 18 min 50 sec) 
Heartbeat CPU 0 instructions: 8000000 cycles: 8115146 heartbeat IPC: 0.438174 cumulative IPC: 0.465227 (Simulation time: 0 hr 18 min 54 sec) 
Heartbeat CPU 0 instructions: 7000002 cycles: 3778956 heartbeat IPC: 1.14512 cumulative IPC: 1.14835 (Simulation time: 0 hr 19 min 4 sec) 
Heartbeat CPU 0 instructions: 7000000 cycles: 9443634 heartbeat IPC: 0.270875 cumulative IPC: 0.305322 (Simulation time: 0 hr 19 min 4 sec) 
Heartbeat CPU 0 instructions: 6000001 cycles: 4315363 heartbeat IPC: 0.60631 cumulative IPC: 0.60631 (Simulation time: 0 hr 19 min 9 sec) 
Heartbeat CPU 0 instructions: 5000003 cycles: 3162993 heartbeat IPC: 1.58149 cumulative IPC: 1.58078 (Simulation time: 0 hr 19 min 14 sec) 

Warmup complete CPU 0 instructions: 5000003 cycles: 3162993 (Simulation time: 0 hr 19 min 14 sec) 

Heartbeat CPU 0 instructions: 6000001 cycles: 4989627 heartbeat IPC: 0.493916 cumulative IPC: 0.493915 (Simulation time: 0 hr 19 min 24 sec) 
Heartbeat CPU 0 instructions: 6000001 cycles: 3899925 heartbeat IPC: 0.67819 cumulative IPC: 0.678188 (Simulation time: 0 hr 19 min 24 sec) 
Heartbeat CPU 0 instructions: 7000000 cycles: 8707133 heartbeat IPC: 0.333591 cumulative IPC: 0.342388 (Simulation time: 0 hr 19 min 25 sec) 
Heartbeat CPU 0 instructions: 6000000 cycles: 6130578 heartbeat IPC: 0.718224 cumulative IPC: 0.718224 (Simulation time: 0 hr 19 min 29 sec) 
Heartbeat CPU 0 instructions: 9000000 cycles: 14106719 heartbeat IPC: 0.50045 cumulative IPC: 0.319636 (Simulation time: 0 hr 19 min 34 sec) 
Heartbeat CPU 0 instructions: 7000001 cycles: 6141948 heartbeat IPC: 0.464324 cumulative IPC: 0.485481 (Simulation time: 0 hr 19 min 43 sec) 
Heartbeat CPU 0 instructions: 6000002 cycles: 4806753 heartbeat IPC: 0.557934 cumulative IPC: 0.557932 (Simulation time: 0 hr 19 min 59 sec) 
Heartbeat CPU 0 instructions: 7000000 cycles: 7709218 heartbeat IPC: 0.320264 cumulative IPC: 0.338655 (Simulation time: 0 hr 20 min 4 sec) 
Heartbeat CPU 0 instructions: 6000001 cycles: 5872447 heartbeat IPC: 0.36848 cumulative IPC: 0.36848 (Simulation time: 0 hr 20 min 6 sec) 
Heartbeat CPU 0 instructions: 7000000 cycles: 5841926 heartbeat IPC: 0.615133 cumulative IPC: 0.613585 (Simulation time: 0 hr 20 min 6 sec) 
Heartbeat CPU 0 instructions: 9000001 cycles: 4502728 heartbeat IPC: 2.09774 cumulative IPC: 2.10454 (Simulation time: 0 hr 20 min 10 sec) 
Heartbeat CPU 0 instructions: 8000000 cycles: 5410792 heartbeat IPC: 0.979516 cumulative IPC: 1.05642 (Simulation time: 0 hr 20 min 11 sec) 
Heartbeat CPU 0 instructions: 6000003 cycles: 5728197 heartbeat IPC: 0.378346 cumulative IPC: 0.378346 (Simulation time: 0 hr 20 min 22 sec) 
Heartbeat CPU 0 instructions: 8000000 cycles: 5089105 heartbeat IPC: 1.08386 cumulative IPC: 1.08436 (Simulation time: 0 hr 20 min 29 sec) 
Heartbeat CPU 0 instructions: 6000000 cycles: 5467156 heartbeat IPC: 0.387146 cumulative IPC: 0.387145 (Simulation time: 0 hr 20 min 30 sec) 
Heartbeat CPU 0 instructions: 8000000 cycles: 5870337 heartbeat IPC: 0.90317 cumulative IPC: 0.81181 (Simulation time: 0 hr 20 min 31 sec) 
Heartbeat CPU 0 instructions: 8000000 cycles: 5218976 heartbeat IPC: 0.94009 cumulative IPC: 0.963128 (Simulation time: 0 hr 20 min 32 sec) 
Heartbeat CPU 0 instructions: 8000000 cycles: 9007150 heartbeat IPC: 0.5315 cumulative IPC: 0.427346 (Simulation time: 0 hr 20 min 40 sec) 
Heartbeat CPU 0 instructions: 6000003 cycles: 5432269 heartbeat IPC: 0.433137 cumulative IPC: 0.433135 (Simulation time: 0 hr 20 min 50 sec) 
Heartbeat CPU 0 instructions: 7000003 cycles: 5676720 heartbeat IPC: 0.529009 cumulative IPC: 0.538413 (Simulation time: 0 hr 20 min 52 sec) 
Heartbeat CPU 0 instructions: 7000002 cycles: 5027820 heartbeat IPC: 0.679264 cumulative IPC: 0.638853 (Simulation time: 0 hr 21 min 1 sec) 
Heartbeat CPU 0 instructions: 6000000 cycles: 5149402 heartbeat IPC: 0.479213 cumulative IPC: 0.479213 (Simulation time: 0 hr 21 min 1 sec) 
Heartbeat CPU 0 instructions: 9000002 cycles: 14227377 heartbeat IPC: 0.328833 cumulative IPC: 0.316191 (Simulation time: 0 hr 21 min 2 sec) 
Heartbeat CPU 0 instructions: 6000001 cycles: 14565291 heartbeat IPC: 0.0827256 cumulative IPC: 0.0827256 (Simulation time: 0 hr 21 min 3 sec) 
Heartbeat CPU 0 instructions: 9000000 cycles: 4658335 heartbeat IPC: 1.77532 cumulative IPC: 1.73058 (Simulation time: 0 hr 21 min 3 sec) 
Heartbeat CPU 0 instructions: 7000002 cycles: 5798246 heartbeat IPC: 0.513996 cumulative IPC: 0.515292 (Simulation time: 0 hr 21 min 3 sec) 
Heartbeat CPU 0 instructions: 6000003 cycles: 7597961 heartbeat IPC: 0.215475 cumulative IPC: 0.215475 (Simulation time: 0 hr 21 min 3 sec) 
Heartbeat CPU 0 instructions: 6000002 cycles: 5078266 heartbeat IPC: 0.472911 cumulative IPC: 0.47291 (Simulation time: 0 hr 21 min 4 sec) 
Heartbeat CPU 0 instructions: 7000000 cycles: 8417103 heartbeat IPC: 0.601768 cumulative IPC: 0.320229 (Simulation time: 0 hr 21 min 7 sec) 
Heartbeat CPU 0 instructions: 6000000 cycles: 3914634 heartbeat IPC: 0.731729 cumulative IPC: 0.731729 (Simulation time: 0 hr 21 min 12 sec) 
Heartbeat CPU 0 instructions: 7000000 cycles: 6634226 heartbeat IPC: 0.515759 cumulative IPC: 0.514816 (Simulation time: 0 hr 21 min 12 sec) 
Heartbeat CPU 0 instructions: 9000000 cycles: 4082145 heartbeat IPC: 1.83023 cumulative IPC: 1.80019 (Simulation time: 0 hr 21 min 15 sec) 
Heartbeat CPU 0 instructions: 6000000 cycles: 5130296 heartbeat IPC: 0.482669 cumulative IPC: 0.482668 (Simulation time: 0 hr 21 min 17 sec) 
Heartbeat CPU 0 instructions: 8000000 cycles: 10489956 heartbeat IPC: 0.955729 cumulative IPC: 0.394904 (Simulation time: 0 hr 21 min 19 sec) 
Heartbeat CPU 0 instructions: 7000001 cycles: 6602001 heartbeat IPC: 0.558853 cumulative IPC: 0.554592 (Simulation time: 0 hr 21 min 22 sec) 
Heartbeat CPU 0 instructions: 7000000 cycles: 5651002 heartbeat IPC: 0.539979 cumulative IPC: 0.541995 (Simulation time: 0 hr 21 min 25 sec) 
Heartbeat CPU 0 instructions: 7000001 cycles: 8473456 heartbeat IPC: 0.21416 cumulative IPC: 0.312416 (Simulation time: 0 hr 21 min 25 sec) 
Heartbeat CPU 0 instructions: 7000000 cycles: 4855253 heartbeat IPC: 0.741889 cumulative IPC: 0.741912 (Simulation time: 0 hr 21 min 27 sec) 
Heartbeat CPU 0 instructions: 8000000 cycles: 6775109 heartbeat IPC: 0.838107 cumulative IPC: 0.611013 (Simulation time: 0 hr 21 min 28 sec) 
Heartbeat CPU 0 instructions: 9000001 cycles: 10389066 heartbeat IPC: 0.43977 cumulative IPC: 0.45859 (Simulation time: 0 hr 21 min 41 sec) 
Heartbeat CPU 0 instructions: 7000000 cycles: 7691774 heartbeat IPC: 0.412938 cumulative IPC: 0.416019 (Simulation time: 0 hr 21 min 43 sec) 
Heartbeat CPU 0 instructions: 7000001 cycles: 7002288 heartbeat IPC: 0.458636 cumulative IPC: 0.45964 (Simulation time: 0 hr 21 min 46 sec) 
Heartbeat CPU 0 instructions: 6000000 cycles: 13618168 heartbeat IPC: 0.0899239 cumulative IPC: 0.0899239 (Simulation time: 0 hr 21 min 46 sec) 
Heartbeat CPU 0 instructions: 6000002 cycles: 5096258 heartbeat IPC: 0.471426 cumulative IPC: 0.471426 (Simulation time: 0 hr 21 min 48 sec) 
Heartbeat CPU 0 instructions: 6000003 cycles: 7235276 heartbeat IPC: 0.220067 cumulative IPC: 0.220067 (Simulation time: 0 hr 21 min 51 sec) 
Heartbeat CPU 0 instructions: 8000000 cycles: 4648785 heartbeat IPC: 1.14965 cumulative IPC: 1.14878 (Simulation time: 0 hr 22 min 0 sec) 
Heartbeat CPU 0 instructions: 10000002 cycles: 16104661 heartbeat IPC: 0.500516 cumulative IPC: 0.344538 (Simulation time: 0 hr 22 min 8 sec) 
Heartbeat CPU 0 instructions: 8000000 cycles: 12129248 heartbeat IPC: 0.292217 cumulative IPC: 0.323854 (Simulation time: 0 hr 22 min 26 sec) 
Heartbeat CPU 0 instructions: 8000000 cycles: 11390235 heartbeat IPC: 0.25349 cumulative IPC: 0.320793 (Simulation time: 0 hr 22 min 29 sec) 
Heartbeat CPU 0 instructions: 7000000 cycles: 7086124 heartbeat IPC: 0.476986 cumulative IPC: 0.485303 (Simulation time: 0 hr 22 min 30 sec) 
Heartbeat CPU 0 instructions: 7000001 cycles: 5480261 heartbeat IPC: 0.632777 cumulative IPC: 0.654696 (Simulation time: 0 hr 22 min 32 sec) 
Heartbeat CPU 0 instructions: 7000000 cycles: 7496043 heartbeat IPC: 0.732351 cumulative IPC: 0.725219 (Simulation time: 0 hr 22 min 39 sec) 
Heartbeat CPU 0 instructions: 8000000 cycles: 10501976 heartbeat IPC: 0.358069 cumulative IPC: 0.344888 (Simulation time: 0 hr 22 min 46 sec) 
Heartbeat CPU 0 instructions: 10000001 cycles: 4976169 heartbeat IPC: 2.1122 cumulative IPC: 2.10607 (Simulation time: 0 hr 22 min 49 sec) 
Heartbeat CPU 0 instructions: 9000000 cycles: 6354386 heartbeat IPC: 1.05978 cumulative IPC: 1.05726 (Simulation time: 0 hr 22 min 52 sec) 
Heartbeat CPU 0 instructions: 7000000 cycles: 5956981 heartbeat IPC: 0.609155 cumulative IPC: 0.607729 (Simulation time: 0 hr 22 min 52 sec) 
Heartbeat CPU 0 instructions: 8000000 cycles: 7872907 heartbeat IPC: 0.577714 cumulative IPC: 0.512769 (Simulation time: 0 hr 22 min 53 sec) 
Heartbeat CPU 0 instructions: 9000000 cycles: 6244656 heartbeat IPC: 0.974963 cumulative IPC: 0.96606 (Simulation time: 0 hr 22 min 56 sec) 
Heartbeat CPU 0 instructions: 6000003 cycles: 9679445 heartbeat IPC: 0.138858 cumulative IPC: 0.138858 (Simulation time: 0 hr 23 min 1 sec) 
Heartbeat CPU 0 instructions: 9000000 cycles: 7183520 heartbeat IPC: 0.761508 cumulative IPC: 0.798622 (Simulation time: 0 hr 23 min 2 sec) 
Heartbeat CPU 0 instructions: 8000000 cycles: 7464681 heartbeat IPC: 0.616236 cumulative IPC: 0.614466 (Simulation time: 0 hr 23 min 25 sec) 
Heartbeat CPU 0 instructions: 9000001 cycles: 6030069 heartbeat IPC: 1.06274 cumulative IPC: 1.07887 (Simulation time: 0 hr 23 min 26 sec) 
Heartbeat CPU 0 instructions: 9000000 cycles: 10704385 heartbeat IPC: 0.589194 cumulative IPC: 0.458858 (Simulation time: 0 hr 23 min 29 sec) 
Heartbeat CPU 0 instructions: 10000001 cycles: 5218925 heartbeat IPC: 1.78384 cumulative IPC: 1.74097 (Simulation time: 0 hr 23 min 29 sec) 
Heartbeat CPU 0 instructions: 7000001 cycles: 6625881 heartbeat IPC: 0.549713 cumulative IPC: 0.553792 (Simulation time: 0 hr 23 min 34 sec) 
Heartbeat CPU 0 instructions: 9000001 cycles: 11537514 heartbeat IPC: 0.954602 cumulative IPC: 0.46273 (Simulation time: 0 hr 23 min 46 sec) 
Heartbeat CPU 0 instructions: 6000001 cycles: 13064529 heartbeat IPC: 0.102441 cumulative IPC: 0.102441 (Simulation time: 0 hr 23 min 51 sec) 
Heartbeat CPU 0 instructions: 10000002 cycles: 5021494 heartbeat IPC: 1.06457 cumulative IPC: 1.58161 (Simulation time: 0 hr 23 min 51 sec) 
Heartbeat CPU 0 instructions: 10000003 cycles: 17188995 heartbeat IPC: 0.337654 cumulative IPC: 0.320263 (Simulation time: 0 hr 24 min 3 sec) 
Heartbeat CPU 0 instructions: 7000002 cycles: 8926221 heartbeat IPC: 0.327464 cumulative IPC: 0.346763 (Simulation time: 0 hr 24 min 3 sec) 
Heartbeat CPU 0 instructions: 7000000 cycles: 8384125 heartbeat IPC: 0.376515 cumulative IPC: 0.377428 (Simulation time: 0 hr 24 min 4 sec) 
Heartbeat CPU 0 instructions: 8000000 cycles: 7736140 heartbeat IPC: 0.516023 cumulative IPC: 0.515535 (Simulation time: 0 hr 24 min 8 sec) 
Heartbeat CPU 0 instructions: 8000000 cycles: 11055859 heartbeat IPC: 0.378966 cumulative IPC: 0.337675 (Simulation time: 0 hr 24 min 8 sec) 
Heartbeat CPU 0 instructions: 6000002 cycles: 6263194 heartbeat IPC: 0.322559 cumulative IPC: 0.322559 (Simulation time: 0 hr 24 min 19 sec) 
Heartbeat CPU 0 instructions: 8000000 cycles: 7382910 heartbeat IPC: 0.586099 cumulative IPC: 0.553422 (Simulation time: 0 hr 24 min 22 sec) 
Heartbeat CPU 0 instructions: 9000003 cycles: 8336084 heartbeat IPC: 0.640627 cumulative IPC: 0.618157 (Simulation time: 0 hr 24 min 25 sec) 
Heartbeat CPU 0 instructions: 8000000 cycles: 6268977 heartbeat IPC: 0.805698 cumulative IPC: 0.686221 (Simulation time: 0 hr 24 min 29 sec) 
Heartbeat CPU 0 instructions: 10000000 cycles: 12684931 heartbeat IPC: 0.435565 cumulative IPC: 0.453792 (Simulation time: 0 hr 24 min 30 sec) 
Heartbeat CPU 0 instructions: 7000002 cycles: 7735012 heartbeat IPC: 0.434264 cumulative IPC: 0.433699 (Simulation time: 0 hr 24 min 31 sec) 
Heartbeat CPU 0 instructions: 7000002 cycles: 8032630 heartbeat IPC: 0.389792 cumulative IPC: 0.388464 (Simulation time: 0 hr 24 min 39 sec) 
Heartbeat CPU 0 instructions: 7000001 cycles: 7182668 heartbeat IPC: 0.475194 cumulative IPC: 0.474049 (Simulation time: 0 hr 24 min 40 sec) 
Heartbeat CPU 0 instructions: 8000000 cycles: 8570743 heartbeat IPC: 0.516391 cumulative IPC: 0.51534 (Simulation time: 0 hr 24 min 42 sec) 
Heartbeat CPU 0 instructions: 8000000 cycles: 8432840 heartbeat IPC: 0.546197 cumulative IPC: 0.551765 (Simulation time: 0 hr 24 min 47 sec) 
Heartbeat CPU 0 instructions: 7000002 cycles: 7121695 heartbeat IPC: 0.507025 cumulative IPC: 0.492727 (Simulation time: 0 hr 24 min 50 sec) 
Heartbeat CPU 0 instructions: 8000000 cycles: 7446119 heartbeat IPC: 0.557067 cumulative IPC: 0.546928 (Simulation time: 0 hr 24 min 55 sec) 
Heartbeat CPU 0 instructions: 11000001 cycles: 18102397 heartbeat IPC: 0.500566 cumulative IPC: 0.363418 (Simulation time: 0 hr 24 min 57 sec) 
Heartbeat CPU 0 instructions: 8000000 cycles: 9153369 heartbeat IPC: 0.464882 cumulative IPC: 0.461374 (Simulation time: 0 hr 25 min 5 sec) 
Heartbeat CPU 0 instructions: 9000000 cycles: 5522697 heartbeat IPC: 1.14428 cumulative IPC: 1.14765 (Simulation time: 0 hr 25 min 8 sec) 
Heartbeat CPU 0 instructions: 8000000 cycles: 6267515 heartbeat IPC: 0.708084 cumulative IPC: 0.730282 (Simulation time: 0 hr 25 min 14 sec) 
Heartbeat CPU 0 instructions: 7000001 cycles: 7132337 heartbeat IPC: 0.499491 cumulative IPC: 0.490935 (Simulation time: 0 hr 25 min 17 sec) 
Heartbeat CPU 0 instructions: 8000000 cycles: 10042649 heartbeat IPC: 0.425374 cumulative IPC: 0.419091 (Simulation time: 0 hr 25 min 21 sec) 
Heartbeat CPU 0 instructions: 7000001 cycles: 5305651 heartbeat IPC: 0.718899 cumulative IPC: 0.725257 (Simulation time: 0 hr 25 min 22 sec) 
Heartbeat CPU 0 instructions: 11000002 cycles: 5453066 heartbeat IPC: 2.09689 cumulative IPC: 2.10453 (Simulation time: 0 hr 25 min 23 sec) 
Heartbeat CPU 0 instructions: 8000000 cycles: 6703492 heartbeat IPC: 0.817506 cumulative IPC: 0.701248 (Simulation time: 0 hr 25 min 26 sec) 
Heartbeat CPU 0 instructions: 10000002 cycles: 7214999 heartbeat IPC: 1.16196 cumulative IPC: 1.07666 (Simulation time: 0 hr 25 min 28 sec) 
Heartbeat CPU 0 instructions: 9000001 cycles: 15278308 heartbeat IPC: 0.317555 cumulative IPC: 0.322256 (Simulation time: 0 hr 25 min 32 sec) 
Heartbeat CPU 0 instructions: 10000001 cycles: 8566733 heartbeat IPC: 0.722955 cumulative IPC: 0.782247 (Simulation time: 0 hr 25 min 32 sec) 
Heartbeat CPU 0 instructions: 10000000 cycles: 7102504 heartbeat IPC: 1.16571 cumulative IPC: 1.00032 (Simulation time: 0 hr 25 min 37 sec) 
Heartbeat CPU 0 instructions: 9000000 cycles: 13309860 heartbeat IPC: 0.35614 cumulative IPC: 0.347634 (Simulation time: 0 hr 25 min 37 sec) 
Heartbeat CPU 0 instructions: 8000000 cycles: 12681669 heartbeat IPC: 0.23763 cumulative IPC: 0.282754 (Simulation time: 0 hr 25 min 38 sec) 
Heartbeat CPU 0 instructions: 7000003 cycles: 12483528 heartbeat IPC: 0.204685 cumulative IPC: 0.209941 (Simulation time: 0 hr 25 min 38 sec) 
Heartbeat CPU 0 instructions: 7000000 cycles: 7226538 heartbeat IPC: 0.469421 cumulative IPC: 0.470421 (Simulation time: 0 hr 25 min 39 sec) 
Heartbeat CPU 0 instructions: 9000001 cycles: 14586381 heartbeat IPC: 0.312877 cumulative IPC: 0.318777 (Simulation time: 0 hr 25 min 46 sec) 
Heartbeat CPU 0 instructions: 7000000 cycles: 26698719 heartbeat IPC: 0.0824169 cumulative IPC: 0.0825709 (Simulation time: 0 hr 25 min 52 sec) 
Heartbeat CPU 0 instructions: 10000003 cycles: 12583261 heartbeat IPC: 0.956256 cumulative IPC: 0.515991 (Simulation time: 0 hr 25 min 59 sec) 
Heartbeat CPU 0 instructions: 11000001 cycles: 5779212 heartbeat IPC: 1.7848 cumulative IPC: 1.74813 (Simulation time: 0 hr 26 min 0 sec) 
Heartbeat CPU 0 instructions: 9000003 cycles: 9722085 heartbeat IPC: 0.540782 cumulative IPC: 0.519497 (Simulation time: 0 hr 26 min 2 sec) 
Heartbeat CPU 0 instructions: 8000000 cycles: 8867205 heartbeat IPC: 0.729308 cumulative IPC: 0.726577 (Simulation time: 0 hr 26 min 12 sec) 
Heartbeat CPU 0 instructions: 10000002 cycles: 6952225 heartbeat IPC: 1.08442 cumulative IPC: 1.07998 (Simulation time: 0 hr 26 min 18 sec) 
[...]
Heartbeat CPU 0 instructions: 41000000 cycles: 202452572 heartbeat IPC: 0.270509 cumulative IPC: 0.180215 (Simulation time: 3 hr 2 min 48 sec) 
Heartbeat CPU 0 instructions: 47000000 cycles: 180152536 heartbeat IPC: 0.307241 cumulative IPC: 0.237026 (Simulation time: 3 hr 2 min 52 sec) 
Heartbeat CPU 0 instructions: 55000001 cycles: 132783196 heartbeat IPC: 0.409746 cumulative IPC: 0.385511 (Simulation time: 3 hr 2 min 57 sec) 
Finished CPU 0 instructions: 50000000 cycles: 129698086 cummulative IPC: 0.385511 (Simulation time: 3 hr 2 min 57 sec) 

ChampSim completed all CPUs

Region of Interest Statistics

CPU 0 cummulative IPC: 0.385511 instructions: 50000000 cycles: 129698086
LLC TOTAL     ACCESS:     168332  HIT:     151878  MISS:      16454
LLC LOAD      ACCESS:     116139  HIT:     103559  MISS:      12580
LLC RFO       ACCESS:      15800  HIT:      12132  MISS:       3668
LLC PREFETCH  ACCESS:          0  HIT:          0  MISS:          0
LLC WRITEBACK ACCESS:      36393  HIT:      36187  MISS:        206
Heartbeat CPU 0 instructions: 53000003 cycles: 96701248 heartbeat IPC: 0.437808 cumulative IPC: 0.512586 (Simulation time: 3 hr 3 min 2 sec) 
Heartbeat CPU 0 instructions: 50000001 cycles: 141202280 heartbeat IPC: 0.327218 cumulative IPC: 0.325994 (Simulation time: 3 hr 3 min 10 sec) 
Heartbeat CPU 0 instructions: 51000000 cycles: 369200247 heartbeat IPC: 0.134611 cumulative IPC: 0.125718 (Simulation time: 3 hr 3 min 10 sec) 
Heartbeat CPU 0 instructions: 52000000 cycles: 119897900 heartbeat IPC: 0.493908 cumulative IPC: 0.401974 (Simulation time: 3 hr 3 min 21 sec) 
Heartbeat CPU 0 instructions: 42000000 cycles: 206176005 heartbeat IPC: 0.268569 cumulative IPC: 0.181832 (Simulation time: 3 hr 3 min 33 sec) 
Heartbeat CPU 0 instructions: 49000000 cycles: 120326130 heartbeat IPC: 0.25827 cumulative IPC: 0.372356 (Simulation time: 3 hr 3 min 34 sec) 
Heartbeat CPU 0 instructions: 42000000 cycles: 461703740 heartbeat IPC: 0.111304 cumulative IPC: 0.0805702 (Simulation time: 3 hr 3 min 38 sec) 
Heartbeat CPU 0 instructions: 42000000 cycles: 459518943 heartbeat IPC: 0.0830891 cumulative IPC: 0.080959 (Simulation time: 3 hr 3 min 40 sec) 
Heartbeat CPU 0 instructions: 48000000 cycles: 184303793 heartbeat IPC: 0.240891 cumulative IPC: 0.237115 (Simulation time: 3 hr 3 min 42 sec) 
Heartbeat CPU 0 instructions: 41000000 cycles: 329218428 heartbeat IPC: 0.0686864 cumulative IPC: 0.110179 (Simulation time: 3 hr 3 min 50 sec) 
Heartbeat CPU 0 instructions: 51000002 cycles: 144226517 heartbeat IPC: 0.330662 cumulative IPC: 0.326094 (Simulation time: 3 hr 3 min 56 sec) 
Heartbeat CPU 0 instructions: 52000000 cycles: 377995024 heartbeat IPC: 0.113704 cumulative IPC: 0.125436 (Simulation time: 3 hr 4 min 1 sec) 
Heartbeat CPU 0 instructions: 53000003 cycles: 121870086 heartbeat IPC: 0.507053 cumulative IPC: 0.403717 (Simulation time: 3 hr 4 min 4 sec) 
Heartbeat CPU 0 instructions: 54000003 cycles: 98821921 heartbeat IPC: 0.471548 cumulative IPC: 0.511678 (Simulation time: 3 hr 4 min 8 sec) 
Heartbeat CPU 0 instructions: 43000002 cycles: 209900332 heartbeat IPC: 0.268505 cumulative IPC: 0.18339 (Simulation time: 3 hr 4 min 19 sec) 
Heartbeat CPU 0 instructions: 49000000 cycles: 187474175 heartbeat IPC: 0.315419 cumulative IPC: 0.23846 (Simulation time: 3 hr 4 min 23 sec) 
Heartbeat CPU 0 instructions: 50000001 cycles: 124055856 heartbeat IPC: 0.268116 cumulative IPC: 0.369166 (Simulation time: 3 hr 4 min 28 sec) 
Heartbeat CPU 0 instructions: 43000000 cycles: 471619120 heartbeat IPC: 0.0826434 cumulative IPC: 0.0810025 (Simulation time: 3 hr 4 min 34 sec) 
Heartbeat CPU 0 instructions: 42000001 cycles: 334827206 heartbeat IPC: 0.178292 cumulative IPC: 0.111329 (Simulation time: 3 hr 4 min 36 sec) 
Heartbeat CPU 0 instructions: 52000000 cycles: 147241359 heartbeat IPC: 0.331692 cumulative IPC: 0.326211 (Simulation time: 3 hr 4 min 40 sec) 
Heartbeat CPU 0 instructions: 53000000 cycles: 384998617 heartbeat IPC: 0.142784 cumulative IPC: 0.125755 (Simulation time: 3 hr 4 min 41 sec) 
Heartbeat CPU 0 instructions: 54000002 cycles: 123789808 heartbeat IPC: 0.520908 cumulative IPC: 0.40558 (Simulation time: 3 hr 4 min 42 sec) 
Heartbeat CPU 0 instructions: 43000001 cycles: 473406921 heartbeat IPC: 0.0854469 cumulative IPC: 0.0806914 (Simulation time: 3 hr 4 min 44 sec) 
Heartbeat CPU 0 instructions: 44000000 cycles: 213627795 heartbeat IPC: 0.268278 cumulative IPC: 0.18489 (Simulation time: 3 hr 4 min 58 sec) 
Heartbeat CPU 0 instructions: 50000001 cycles: 191841375 heartbeat IPC: 0.22898 cumulative IPC: 0.238241 (Simulation time: 3 hr 5 min 3 sec) 
Heartbeat CPU 0 instructions: 55000001 cycles: 101128498 heartbeat IPC: 0.433542 cumulative IPC: 0.50984 (Simulation time: 3 hr 5 min 7 sec) 
Finished CPU 0 instructions: 50000003 cycles: 98070016 cummulative IPC: 0.50984 (Simulation time: 3 hr 5 min 7 sec) 

ChampSim completed all CPUs

Region of Interest Statistics

CPU 0 cummulative IPC: 0.50984 instructions: 50000003 cycles: 98070016
LLC TOTAL     ACCESS:    1892710  HIT:     763213  MISS:    1129497
LLC LOAD      ACCESS:    1251739  HIT:     483117  MISS:     768622
LLC RFO       ACCESS:     263707  HIT:     103046  MISS:     160661
LLC PREFETCH  ACCESS:          0  HIT:          0  MISS:          0
LLC WRITEBACK ACCESS:     377264  HIT:     177050  MISS:     200214
Heartbeat CPU 0 instructions: 54000001 cycles: 392852734 heartbeat IPC: 0.127322 cumulative IPC: 0.125786 (Simulation time: 3 hr 5 min 16 sec) 
Heartbeat CPU 0 instructions: 43000000 cycles: 339808306 heartbeat IPC: 0.200759 cumulative IPC: 0.112649 (Simulation time: 3 hr 5 min 17 sec) 
Heartbeat CPU 0 instructions: 55000001 cycles: 125731507 heartbeat IPC: 0.515012 cumulative IPC: 0.40731 (Simulation time: 3 hr 5 min 18 sec) 
Finished CPU 0 instructions: 50000000 cycles: 122756474 cummulative IPC: 0.40731 (Simulation time: 3 hr 5 min 18 sec) 

ChampSim completed all CPUs

Region of Interest Statistics

CPU 0 cummulative IPC: 0.40731 instructions: 50000000 cycles: 122756474
LLC TOTAL     ACCESS:     585937  HIT:     153197  MISS:     432740
LLC LOAD      ACCESS:     317736  HIT:      41488  MISS:     276248
LLC RFO       ACCESS:     134057  HIT:      19373  MISS:     114684
LLC PREFETCH  ACCESS:          0  HIT:          0  MISS:          0
LLC WRITEBACK ACCESS:     134144  HIT:      92336  MISS:      41808
Heartbeat CPU 0 instructions: 51000000 cycles: 127783317 heartbeat IPC: 0.268279 cumulative IPC: 0.366173 (Simulation time: 3 hr 5 min 19 sec) 
Heartbeat CPU 0 instructions: 53000000 cycles: 150348585 heartbeat IPC: 0.32183 cumulative IPC: 0.326119 (Simulation time: 3 hr 5 min 21 sec) 
Heartbeat CPU 0 instructions: 44000000 cycles: 483738045 heartbeat IPC: 0.0825156 cumulative IPC: 0.0810406 (Simulation time: 3 hr 5 min 24 sec) 
Heartbeat CPU 0 instructions: 45000001 cycles: 217328299 heartbeat IPC: 0.270234 cumulative IPC: 0.186361 (Simulation time: 3 hr 5 min 29 sec) 
Heartbeat CPU 0 instructions: 51000003 cycles: 195872669 heartbeat IPC: 0.24806 cumulative IPC: 0.238446 (Simulation time: 3 hr 5 min 37 sec) 
Heartbeat CPU 0 instructions: 44000000 cycles: 486294737 heartbeat IPC: 0.0775926 cumulative IPC: 0.0806089 (Simulation time: 3 hr 5 min 39 sec) 
Heartbeat CPU 0 instructions: 55000001 cycles: 401071127 heartbeat IPC: 0.121678 cumulative IPC: 0.125701 (Simulation time: 3 hr 5 min 45 sec) 
Finished CPU 0 instructions: 50000000 cycles: 397768349 cummulative IPC: 0.125701 (Simulation time: 3 hr 5 min 45 sec) 

ChampSim completed all CPUs

Region of Interest Statistics

CPU 0 cummulative IPC: 0.125701 instructions: 50000000 cycles: 397768349
LLC TOTAL     ACCESS:    4073917  HIT:    1532559  MISS:    2541358
LLC LOAD      ACCESS:    1208957  HIT:     261986  MISS:     946971
LLC RFO       ACCESS:    1207739  HIT:     444558  MISS:     763181
LLC PREFETCH  ACCESS:          0  HIT:          0  MISS:          0
LLC WRITEBACK ACCESS:    1657221  HIT:     826015  MISS:     831206
Heartbeat CPU 0 instructions: 54000000 cycles: 153381157 heartbeat IPC: 0.329753 cumulative IPC: 0.326192 (Simulation time: 3 hr 5 min 55 sec) 
Heartbeat CPU 0 instructions: 46000001 cycles: 221002584 heartbeat IPC: 0.272162 cumulative IPC: 0.187805 (Simulation time: 3 hr 5 min 56 sec) 
Heartbeat CPU 0 instructions: 52000000 cycles: 131553640 heartbeat IPC: 0.265229 cumulative IPC: 0.363231 (Simulation time: 3 hr 5 min 58 sec) 
Heartbeat CPU 0 instructions: 45000001 cycles: 495812800 heartbeat IPC: 0.0828175 cumulative IPC: 0.0810841 (Simulation time: 3 hr 6 min 3 sec) 
Heartbeat CPU 0 instructions: 44000000 cycles: 353159344 heartbeat IPC: 0.0749005 cumulative IPC: 0.111212 (Simulation time: 3 hr 6 min 6 sec) 
Heartbeat CPU 0 instructions: 45000000 cycles: 494039667 heartbeat IPC: 0.129117 cumulative IPC: 0.0813732 (Simulation time: 3 hr 6 min 10 sec) 
Heartbeat CPU 0 instructions: 52000000 cycles: 200303628 heartbeat IPC: 0.225684 cumulative IPC: 0.23816 (Simulation time: 3 hr 6 min 12 sec) 
Heartbeat CPU 0 instructions: 47000001 cycles: 224679644 heartbeat IPC: 0.271956 cumulative IPC: 0.189199 (Simulation time: 3 hr 6 min 21 sec) 
Heartbeat CPU 0 instructions: 55000003 cycles: 156412459 heartbeat IPC: 0.329892 cumulative IPC: 0.326265 (Simulation time: 3 hr 6 min 27 sec) 
Finished CPU 0 instructions: 50000000 cycles: 153249466 cummulative IPC: 0.326265 (Simulation time: 3 hr 6 min 27 sec) 

ChampSim completed all CPUs

Region of Interest Statistics

CPU 0 cummulative IPC: 0.326265 instructions: 50000000 cycles: 153249466
LLC TOTAL     ACCESS:    2633439  HIT:     437373  MISS:    2196066
LLC LOAD      ACCESS:    1915756  HIT:     419182  MISS:    1496574
LLC RFO       ACCESS:          0  HIT:          0  MISS:          0
LLC PREFETCH  ACCESS:          0  HIT:          0  MISS:          0
LLC WRITEBACK ACCESS:     717683  HIT:      18191  MISS:     699492
Heartbeat CPU 0 instructions: 53000000 cycles: 135443129 heartbeat IPC: 0.257103 cumulative IPC: 0.360134 (Simulation time: 3 hr 6 min 35 sec) 
Heartbeat CPU 0 instructions: 46000000 cycles: 507848154 heartbeat IPC: 0.0830885 cumulative IPC: 0.0811318 (Simulation time: 3 hr 6 min 40 sec) 
Heartbeat CPU 0 instructions: 45000001 cycles: 361147300 heartbeat IPC: 0.125189 cumulative IPC: 0.111523 (Simulation time: 3 hr 6 min 41 sec) 
Heartbeat CPU 0 instructions: 53000000 cycles: 205449968 heartbeat IPC: 0.194313 cumulative IPC: 0.237045 (Simulation time: 3 hr 6 min 41 sec) 
Heartbeat CPU 0 instructions: 46000002 cycles: 505255642 heartbeat IPC: 0.0891587 cumulative IPC: 0.0815468 (Simulation time: 3 hr 6 min 43 sec) 
Heartbeat CPU 0 instructions: 48000000 cycles: 228337292 heartbeat IPC: 0.273399 cumulative IPC: 0.190564 (Simulation time: 3 hr 6 min 44 sec) 
Heartbeat CPU 0 instructions: 54000001 cycles: 137956161 heartbeat IPC: 0.397926 cumulative IPC: 0.360834 (Simulation time: 3 hr 7 min 1 sec) 
Heartbeat CPU 0 instructions: 49000000 cycles: 232019990 heartbeat IPC: 0.27154 cumulative IPC: 0.191864 (Simulation time: 3 hr 7 min 5 sec) 
Heartbeat CPU 0 instructions: 54000002 cycles: 210074324 heartbeat IPC: 0.216247 cumulative IPC: 0.236581 (Simulation time: 3 hr 7 min 8 sec) 
Heartbeat CPU 0 instructions: 46000001 cycles: 366269026 heartbeat IPC: 0.195247 cumulative IPC: 0.112702 (Simulation time: 3 hr 7 min 8 sec) 
Heartbeat CPU 0 instructions: 47000002 cycles: 519850260 heartbeat IPC: 0.0833189 cumulative IPC: 0.0811825 (Simulation time: 3 hr 7 min 12 sec) 
Heartbeat CPU 0 instructions: 47000002 cycles: 518283231 heartbeat IPC: 0.0767602 cumulative IPC: 0.0814259 (Simulation time: 3 hr 7 min 19 sec) 
Heartbeat CPU 0 instructions: 55000002 cycles: 140285031 heartbeat IPC: 0.429393 cumulative IPC: 0.36199 (Simulation time: 3 hr 7 min 24 sec) 
Finished CPU 0 instructions: 50000001 cycles: 138125515 cummulative IPC: 0.36199 (Simulation time: 3 hr 7 min 24 sec) 

ChampSim completed all CPUs

Region of Interest Statistics

CPU 0 cummulative IPC: 0.36199 instructions: 50000001 cycles: 138125515
LLC TOTAL     ACCESS:    1603017  HIT:     740404  MISS:     862613
LLC LOAD      ACCESS:    1393852  HIT:     541616  MISS:     852236
LLC RFO       ACCESS:      12669  HIT:       2798  MISS:       9871
LLC PREFETCH  ACCESS:          0  HIT:          0  MISS:          0
LLC WRITEBACK ACCESS:     196496  HIT:     195990  MISS:        506
Heartbeat CPU 0 instructions: 50000003 cycles: 235696615 heartbeat IPC: 0.271989 cumulative IPC: 0.193129 (Simulation time: 3 hr 7 min 25 sec) 
Heartbeat CPU 0 instructions: 55000001 cycles: 214326544 heartbeat IPC: 0.235171 cumulative IPC: 0.236553 (Simulation time: 3 hr 7 min 31 sec) 
Finished CPU 0 instructions: 50000001 cycles: 211369500 cummulative IPC: 0.236553 (Simulation time: 3 hr 7 min 31 sec) 

ChampSim completed all CPUs

Region of Interest Statistics

CPU 0 cummulative IPC: 0.236553 instructions: 50000001 cycles: 211369500
LLC TOTAL     ACCESS:    1600844  HIT:     709870  MISS:     890974
LLC LOAD      ACCESS:     958599  HIT:     249255  MISS:     709344
LLC RFO       ACCESS:     164190  HIT:      41545  MISS:     122645
LLC PREFETCH  ACCESS:          0  HIT:          0  MISS:          0
LLC WRITEBACK ACCESS:     478055  HIT:     419070  MISS:      58985
Heartbeat CPU 0 instructions: 47000002 cycles: 376078986 heartbeat IPC: 0.101937 cumulative IPC: 0.112419 (Simulation time: 3 hr 7 min 35 sec) 
Heartbeat CPU 0 instructions: 48000000 cycles: 531587473 heartbeat IPC: 0.0851989 cumulative IPC: 0.0812716 (Simulation time: 3 hr 7 min 36 sec) 
Heartbeat CPU 0 instructions: 48000000 cycles: 526278825 heartbeat IPC: 0.125069 cumulative IPC: 0.0820921 (Simulation time: 3 hr 7 min 36 sec) 
Heartbeat CPU 0 instructions: 51000001 cycles: 239375144 heartbeat IPC: 0.271847 cumulative IPC: 0.194352 (Simulation time: 3 hr 7 min 37 sec) 
Heartbeat CPU 0 instructions: 52000000 cycles: 243026382 heartbeat IPC: 0.273879 cumulative IPC: 0.19556 (Simulation time: 3 hr 7 min 49 sec) 
Heartbeat CPU 0 instructions: 49000003 cycles: 537442447 heartbeat IPC: 0.0895769 cumulative IPC: 0.0822483 (Simulation time: 3 hr 7 min 54 sec) 
Heartbeat CPU 0 instructions: 49000000 cycles: 543734611 heartbeat IPC: 0.0823239 cumulative IPC: 0.0812953 (Simulation time: 3 hr 7 min 54 sec) 
Heartbeat CPU 0 instructions: 48000000 cycles: 387728827 heartbeat IPC: 0.0858379 cumulative IPC: 0.111616 (Simulation time: 3 hr 7 min 54 sec) 
Heartbeat CPU 0 instructions: 53000001 cycles: 246694842 heartbeat IPC: 0.272594 cumulative IPC: 0.196718 (Simulation time: 3 hr 8 min 0 sec) 
Heartbeat CPU 0 instructions: 49000000 cycles: 393126699 heartbeat IPC: 0.185258 cumulative IPC: 0.112633 (Simulation time: 3 hr 8 min 7 sec) 
Heartbeat CPU 0 instructions: 50000002 cycles: 555844941 heartbeat IPC: 0.0825743 cumulative IPC: 0.0813233 (Simulation time: 3 hr 8 min 9 sec) 
Heartbeat CPU 0 instructions: 54000000 cycles: 250353483 heartbeat IPC: 0.273325 cumulative IPC: 0.19785 (Simulation time: 3 hr 8 min 10 sec) 
Heartbeat CPU 0 instructions: 50000000 cycles: 550666450 heartbeat IPC: 0.0756198 cumulative IPC: 0.0820884 (Simulation time: 3 hr 8 min 12 sec) 
Heartbeat CPU 0 instructions: 55000000 cycles: 254028465 heartbeat IPC: 0.27211 cumulative IPC: 0.198936 (Simulation time: 3 hr 8 min 20 sec) 
Finished CPU 0 instructions: 50000000 cycles: 251337291 cummulative IPC: 0.198936 (Simulation time: 3 hr 8 min 20 sec) 

ChampSim completed all CPUs

Region of Interest Statistics

CPU 0 cummulative IPC: 0.198936 instructions: 50000000 cycles: 251337291
LLC TOTAL     ACCESS:    2080698  HIT:     357438  MISS:    1723260
LLC LOAD      ACCESS:    1000422  HIT:      58636  MISS:     941786
LLC RFO       ACCESS:     448317  HIT:      15220  MISS:     433097
LLC PREFETCH  ACCESS:          0  HIT:          0  MISS:          0
LLC WRITEBACK ACCESS:     631959  HIT:     283582  MISS:     348377
Heartbeat CPU 0 instructions: 50000001 cycles: 400031120 heartbeat IPC: 0.144835 cumulative IPC: 0.113192 (Simulation time: 3 hr 8 min 21 sec) 
Heartbeat CPU 0 instructions: 51000000 cycles: 558400615 heartbeat IPC: 0.129296 cumulative IPC: 0.0827452 (Simulation time: 3 hr 8 min 24 sec) 
Heartbeat CPU 0 instructions: 51000002 cycles: 567940594 heartbeat IPC: 0.0826743 cumulative IPC: 0.0813522 (Simulation time: 3 hr 8 min 25 sec) 
Heartbeat CPU 0 instructions: 52000000 cycles: 569010858 heartbeat IPC: 0.0942485 cumulative IPC: 0.0829606 (Simulation time: 3 hr 8 min 36 sec) 
Heartbeat CPU 0 instructions: 51000001 cycles: 414513033 heartbeat IPC: 0.0690517 cumulative IPC: 0.111641 (Simulation time: 3 hr 8 min 37 sec) 
Heartbeat CPU 0 instructions: 52000000 cycles: 579955780 heartbeat IPC: 0.0832278 cumulative IPC: 0.0813912 (Simulation time: 3 hr 8 min 39 sec) 
Heartbeat CPU 0 instructions: 52000000 cycles: 419882211 heartbeat IPC: 0.186248 cumulative IPC: 0.112601 (Simulation time: 3 hr 8 min 48 sec) 
Heartbeat CPU 0 instructions: 53000000 cycles: 583135942 heartbeat IPC: 0.070796 cumulative IPC: 0.0826647 (Simulation time: 3 hr 8 min 52 sec) 
Heartbeat CPU 0 instructions: 53000000 cycles: 592097413 heartbeat IPC: 0.0823612 cumulative IPC: 0.0814112 (Simulation time: 3 hr 8 min 53 sec) 
Heartbeat CPU 0 instructions: 53000000 cycles: 424955544 heartbeat IPC: 0.197109 cumulative IPC: 0.113615 (Simulation time: 3 hr 8 min 59 sec) 
Heartbeat CPU 0 instructions: 54000000 cycles: 591186730 heartbeat IPC: 0.124211 cumulative IPC: 0.0832329 (Simulation time: 3 hr 9 min 3 sec) 
Heartbeat CPU 0 instructions: 54000000 cycles: 604101296 heartbeat IPC: 0.0833064 cumulative IPC: 0.081449 (Simulation time: 3 hr 9 min 6 sec) 
Heartbeat CPU 0 instructions: 55000000 cycles: 600433534 heartbeat IPC: 0.108145 cumulative IPC: 0.0836181 (Simulation time: 3 hr 9 min 15 sec) 
Finished CPU 0 instructions: 50000003 cycles: 597956411 cummulative IPC: 0.0836181 (Simulation time: 3 hr 9 min 15 sec) 

ChampSim completed all CPUs

Region of Interest Statistics

CPU 0 cummulative IPC: 0.0836181 instructions: 50000003 cycles: 597956411
LLC TOTAL     ACCESS:    6474170  HIT:    3045915  MISS:    3428255
LLC LOAD      ACCESS:    5697302  HIT:    2484975  MISS:    3212327
LLC RFO       ACCESS:      65913  HIT:      34389  MISS:      31524
LLC PREFETCH  ACCESS:          0  HIT:          0  MISS:          0
LLC WRITEBACK ACCESS:     710955  HIT:     526551  MISS:     184404
Heartbeat CPU 0 instructions: 54000002 cycles: 440457921 heartbeat IPC: 0.0645064 cumulative IPC: 0.111877 (Simulation time: 3 hr 9 min 16 sec) 
Heartbeat CPU 0 instructions: 55000000 cycles: 616152912 heartbeat IPC: 0.0829764 cumulative IPC: 0.081479 (Simulation time: 3 hr 9 min 18 sec) 
Finished CPU 0 instructions: 50000000 cycles: 613655236 cummulative IPC: 0.081479 (Simulation time: 3 hr 9 min 18 sec) 

ChampSim completed all CPUs

Region of Interest Statistics

CPU 0 cummulative IPC: 0.081479 instructions: 50000000 cycles: 613655236
LLC TOTAL     ACCESS:    7409447  HIT:    3903001  MISS:    3506446
LLC LOAD      ACCESS:    7242679  HIT:    3778128  MISS:    3464551
LLC RFO       ACCESS:      12949  HIT:       7251  MISS:       5698
LLC PREFETCH  ACCESS:          0  HIT:          0  MISS:          0
LLC WRITEBACK ACCESS:     153819  HIT:     117622  MISS:      36197
Heartbeat CPU 0 instructions: 55000002 cycles: 446329713 heartbeat IPC: 0.170306 cumulative IPC: 0.11265 (Simulation time: 3 hr 9 min 24 sec) 
Finished CPU 0 instructions: 50000001 cycles: 443851874 cummulative IPC: 0.11265 (Simulation time: 3 hr 9 min 24 sec) 

ChampSim completed all CPUs

Region of Interest Statistics

CPU 0 cummulative IPC: 0.11265 instructions: 50000001 cycles: 443851874
LLC TOTAL     ACCESS:    5613637  HIT:    2400631  MISS:    3213006
LLC LOAD      ACCESS:    4492995  HIT:    1708557  MISS:    2784438
LLC RFO       ACCESS:      98847  HIT:      57284  MISS:      41563
LLC PREFETCH  ACCESS:          0  HIT:          0  MISS:          0
LLC WRITEBACK ACCESS:    1021795  HIT:     634790  MISS:     387005
