
*** ChampSim Multicore Out-of-Order Simulator ***

Warmup Instructions: 5000000
Simulation Instructions: 50000000
Configuration: 1
Number of CPUs: 1
LLC sets: 2048
LLC ways: 16
Off-chip DRAM Channels: 1 Width: 64-bit Data Rate: 1600 MT/s



*** ChampSim Multicore Out-of-Order Simulator ***

*** ChampSim Multicore Out-of-Order Simulator ***

Warmup Instructions: 5000000
Simulation Instructions: 50000000
Configuration: 1
Number of CPUs: 1
Warmup Instructions: 5000000
LLC sets: 2048
Simulation Instructions: 50000000
LLC ways: 16
Configuration: 1
Number of CPUs: 1
LLC sets: 2048
LLC ways: 16
Off-chip DRAM Channels: 1 Width: 64-bit Data Rate: 1600 MT/s

Off-chip DRAM Channels: 1 Width: 64-bit Data Rate: 1600 MT/s



*** ChampSim Multicore Out-of-Order Simulator ***

*** ChampSim Multicore Out-of-Order Simulator ***


Warmup Instructions: 5000000
Simulation Instructions: 50000000
Configuration: 1
Number of CPUs: 1
LLC sets: 2048
LLC ways: 16
Warmup Instructions: 5000000
Simulation Instructions: 50000000
Configuration: 1

Number of CPUs: 1
LLC sets: 2048
LLC ways: 16
Off-chip DRAM Channels: 1 Width: 64-bit Data Rate: 1600 MT/s

*** ChampSim Multicore Out-of-Order Simulator ***

Warmup Instructions: 5000000
Simulation Instructions: 50000000
Configuration: 1
Number of CPUs: 1
LLC sets: 2048
LLC ways: 16

Off-chip DRAM Channels: 1 Width: 64-bit Data Rate: 1600 MT/s


*** ChampSim Multicore Out-of-Order Simulator ***

Warmup Instructions: 5000000
Simulation Instructions: 50000000
Configuration: 1
Number of CPUs: 1
LLC sets: 2048
LLC ways: 16
*** ChampSim Multicore Out-of-Order Simulator ***

Off-chip DRAM Channels: 1 Width: 64-bit Data Rate: 1600 MT/s

*** ChampSim Multicore Out-of-Order Simulator ***



*** ChampSim Multicore Out-of-Order Simulator ***

*** ChampSim Multicore Out-of-Order Simulator ***

Warmup Instructions: 5000000
Simulation Instructions: 50000000
Configuration: 1
Number of CPUs: 1
LLC sets: 2048
LLC ways: 16
Off-chip DRAM Channels: 1 Width: 64-bit Data Rate: 1600 MT/s



Off-chip DRAM Channels: 1 Width: 64-bit Data Rate: 1600 MT/s

Warmup Instructions: 5000000
Simulation Instructions: 50000000

Configuration: 1
Number of CPUs: 1
LLC sets: 2048
LLC ways: 16
*** ChampSim Multicore Out-of-Order Simulator ***

Off-chip DRAM Channels: 1 Width: 64-bit Data Rate: 1600 MT/s


Warmup Instructions: 5000000
Simulation Instructions: 50000000
Configuration: 1
Number of CPUs: 1
LLC sets: 2048
LLC ways: 16
Warmup Instructions: 5000000
*** ChampSim Multicore Out-of-Order Simulator ***
Off-chip DRAM Channels: 1 Width: 64-bit Data Rate: 1600 MT/s


Simulation Instructions: 50000000
Configuration: 1
Warmup Instructions: 5000000
Simulation Instructions: 50000000
Number of CPUs: 1
Configuration: 1
LLC sets: 2048
LLC ways: 16
Number of CPUs: 1
LLC sets: 2048
LLC ways: 16
Warmup Instructions: 5000000
Simulation Instructions: 50000000

*** ChampSim Multicore Out-of-Order Simulator ***

*** ChampSim Multicore Out-of-Order Simulator ***
Warmup Instructions: 5000000
Simulation Instructions: 50000000

Configuration: 1

Number of CPUs: 1
LLC sets: 2048
LLC ways: 16
Warmup Instructions: 5000000
*** ChampSim Multicore Out-of-Order Simulator ***
Off-chip DRAM Channels: 1 Width: 64-bit Data Rate: 1600 MT/s


Warmup Instructions: 5000000
Simulation Instructions: 50000000

Configuration: 1
Number of CPUs: 1
LLC sets: 2048
LLC ways: 16
*** ChampSim Multicore Out-of-Order Simulator ***
Off-chip DRAM Channels: 1 Width: 64-bit Data Rate: 1600 MT/s




*** ChampSim Multicore Out-of-Order Simulator ***

Warmup Instructions: 5000000
Simulation Instructions: 50000000
Configuration: 1
*** ChampSim Multicore Out-of-Order Simulator ***
Number of CPUs: 1
LLC sets: 2048
LLC ways: 16



Warmup Instructions: 5000000
*** ChampSim Multicore Out-of-Order Simulator ***
Simulation Instructions: 50000000

Configuration: 1
Off-chip DRAM Channels: 1 Width: 64-bit Data Rate: 1600 MT/s

Number of CPUs: 1
Warmup Instructions: 5000000
*** ChampSim Multicore Out-of-Order Simulator ***
LLC sets: 2048
Simulation Instructions: 50000000

LLC ways: 16
Configuration: 1
Number of CPUs: 1
Off-chip DRAM Channels: 1 Width: 64-bit Data Rate: 1600 MT/s

Warmup Instructions: 5000000
Simulation Instructions: 50000000
Configuration: 1
Number of CPUs: 1
LLC sets: 2048
LLC ways: 16
Off-chip DRAM Channels: 1 Width: 64-bit Data Rate: 1600 MT/s

LLC sets: 2048
LLC ways: 16
Off-chip DRAM Channels: 1 Width: 64-bit Data Rate: 1600 MT/s

Off-chip DRAM Channels: 1 Width: 64-bit Data Rate: 1600 MT/s

Configuration: 1
Number of CPUs: 1
LLC sets: 2048
LLC ways: 16

*** ChampSim Multicore Out-of-Order Simulator ***


Warmup Instructions: 5000000
Simulation Instructions: 50000000
Configuration: 1
Number of CPUs: 1
LLC sets: 2048
*** ChampSim Multicore Out-of-Order Simulator ***
LLC ways: 16

Off-chip DRAM Channels: 1 Width: 64-bit Data Rate: 1600 MT/s

Warmup Instructions: 5000000
Simulation Instructions: 50000000
Configuration: 1
Number of CPUs: 1
LLC sets: 2048
LLC ways: 16
*** ChampSim Multicore Out-of-Order Simulator ***
Off-chip DRAM Channels: 1 Width: 64-bit Data Rate: 1600 MT/s


Warmup Instructions: 5000000
Simulation Instructions: 50000000

Configuration: 1
Number of CPUs: 1
LLC sets: 2048
LLC ways: 16
Simulation Instructions: 50000000
Off-chip DRAM Channels: 1 Width: 64-bit Data Rate: 1600 MT/s

*** ChampSim Multicore Out-of-Order Simulator ***

Configuration: 1

Number of CPUs: 1
Warmup Instructions: 5000000
LLC sets: 2048
Simulation Instructions: 50000000
*** ChampSim Multicore Out-of-Order Simulator ***
LLC ways: 16
Configuration: 1

Number of CPUs: 1
Off-chip DRAM Channels: 1 Width: 64-bit Data Rate: 1600 MT/s

Warmup Instructions: 5000000
Warmup Instructions: 5000000
Simulation Instructions: 50000000
Configuration: 1
Number of CPUs: 1
Simulation Instructions: 50000000
LLC sets: 2048
LLC ways: 16
Configuration: 1
Number of CPUs: 1
LLC sets: 2048
Off-chip DRAM Channels: 1 Width: 64-bit Data Rate: 1600 MT/s

LLC ways: 16
Off-chip DRAM Channels: 1 Width: 64-bit Data Rate: 1600 MT/s

Off-chip DRAM Channels: 1 Width: 64-bit Data Rate: 1600 MT/s


Off-chip DRAM Channels: 1 Width: 64-bit Data Rate: 1600 MT/s


*** ChampSim Multicore Out-of-Order Simulator ***

Warmup Instructions: 5000000
Simulation Instructions: 50000000
Configuration: 1
Number of CPUs: 1
LLC sets: 2048
LLC ways: 16
Off-chip DRAM Channels: 1 Width: 64-bit Data Rate: 1600 MT/s


*** ChampSim Multicore Out-of-Order Simulator ***

Warmup Instructions: 5000000
Simulation Instructions: 50000000
Configuration: 1
Number of CPUs: 1
LLC sets: 2048
LLC ways: 16
Off-chip DRAM Channels: 1 Width: 64-bit Data Rate: 1600 MT/s


*** ChampSim Multicore Out-of-Order Simulator ***

Warmup Instructions: 5000000
Simulation Instructions: 50000000
Configuration: 1
Number of CPUs: 1
LLC sets: 2048
LLC ways: 16
Off-chip DRAM Channels: 1 Width: 64-bit Data Rate: 1600 MT/s



LLC sets: 2048
*** ChampSim Multicore Out-of-Order Simulator ***

LLC ways: 16
Warmup Instructions: 5000000
Simulation Instructions: 50000000
Configuration: 1
*** ChampSim Multicore Out-of-Order Simulator ***
Number of CPUs: 1
Off-chip DRAM Channels: 1 Width: 64-bit Data Rate: 1600 MT/s

*** ChampSim Multicore Out-of-Order Simulator ***


LLC sets: 2048
*** ChampSim Multicore Out-of-Order Simulator ***

LLC ways: 16
Warmup Instructions: 5000000
Simulation Instructions: 50000000
Off-chip DRAM Channels: 1 Width: 64-bit Data Rate: 1600 MT/s

Configuration: 1
Number of CPUs: 1
LLC sets: 2048
LLC ways: 16
Off-chip DRAM Channels: 1 Width: 64-bit Data Rate: 1600 MT/s




Warmup Instructions: 5000000
Simulation Instructions: 50000000
*** ChampSim Multicore Out-of-Order Simulator ***

Configuration: 1
Number of CPUs: 1
LLC sets: 2048
LLC ways: 16
Warmup Instructions: 5000000
Simulation Instructions: 50000000
Configuration: 1
Off-chip DRAM Channels: 1 Width: 64-bit Data Rate: 1600 MT/s

Number of CPUs: 1

LLC sets: 2048
LLC ways: 16

*** ChampSim Multicore Out-of-Order Simulator ***


Warmup Instructions: 5000000

Simulation Instructions: 50000000
*** ChampSim Multicore Out-of-Order Simulator ***

Configuration: 1
Number of CPUs: 1
LLC sets: 2048
*** ChampSim Multicore Out-of-Order Simulator ***
LLC ways: 16

Warmup Instructions: 5000000
Simulation Instructions: 50000000
Configuration: 1
Number of CPUs: 1
LLC sets: 2048
Off-chip DRAM Channels: 1 Width: 64-bit Data Rate: 1600 MT/s

LLC ways: 16
Warmup Instructions: 5000000
Simulation Instructions: 50000000
Configuration: 1
Number of CPUs: 1
LLC sets: 2048
LLC ways: 16
Off-chip DRAM Channels: 1 Width: 64-bit Data Rate: 1600 MT/s

Off-chip DRAM Channels: 1 Width: 64-bit Data Rate: 1600 MT/s


*** ChampSim Multicore Out-of-Order Simulator ***

Warmup Instructions: 5000000
Simulation Instructions: 50000000
Configuration: 1
Number of CPUs: 1
LLC sets: 2048
LLC ways: 16
Off-chip DRAM Channels: 1 Width: 64-bit Data Rate: 1600 MT/s

Warmup Instructions: 5000000
Simulation Instructions: 50000000
Configuration: 1
Number of CPUs: 1
LLC sets: 2048
LLC ways: 16
Off-chip DRAM Channels: 1 Width: 64-bit Data Rate: 1600 MT/s


*** ChampSim Multicore Out-of-Order Simulator ***
*** ChampSim Multicore Out-of-Order Simulator ***


*** ChampSim Multicore Out-of-Order Simulator ***
Warmup Instructions: 5000000
Simulation Instructions: 50000000
Configuration: 1
Warmup Instructions: 5000000
Number of CPUs: 1

Simulation Instructions: 50000000
LLC sets: 2048
Configuration: 1
LLC ways: 16
Off-chip DRAM Channels: 1 Width: 64-bit Data Rate: 1600 MT/s

Off-chip DRAM Channels: 1 Width: 64-bit Data Rate: 1600 MT/s


*** ChampSim Multicore Out-of-Order Simulator ***

Warmup Instructions: 5000000
Simulation Instructions: 50000000
Configuration: 1
Number of CPUs: 1
LLC sets: 2048
LLC ways: 16
Off-chip DRAM Channels: 1 Width: 64-bit Data Rate: 1600 MT/s

Number of CPUs: 1
LLC sets: 2048
LLC ways: 16
Off-chip DRAM Channels: 1 Width: 64-bit Data Rate: 1600 MT/s

Warmup Instructions: 5000000
Simulation Instructions: 50000000
Configuration: 1
Number of CPUs: 1
LLC sets: 2048
LLC ways: 16
Off-chip DRAM Channels: 1 Width: 64-bit Data Rate: 1600 MT/s


*** ChampSim Multicore Out-of-Order Simulator ***

Warmup Instructions: 5000000
Simulation Instructions: 50000000
Configuration: 1
Number of CPUs: 1
LLC sets: 2048
LLC ways: 16
Off-chip DRAM Channels: 1 Width: 64-bit Data Rate: 1600 MT/s


*** ChampSim Multicore Out-of-Order Simulator ***

Warmup Instructions: 5000000
Simulation Instructions: 50000000
Configuration: 1
Number of CPUs: 1
LLC sets: 2048
LLC ways: 16
Off-chip DRAM Channels: 1 Width: 64-bit Data Rate: 1600 MT/s


*** ChampSim Multicore Out-of-Order Simulator ***

Warmup Instructions: 5000000
Simulation Instructions: 50000000
Configuration: 1
Number of CPUs: 1
LLC sets: 2048
LLC ways: 16
Off-chip DRAM Channels: 1 Width: 64-bit Data Rate: 1600 MT/s


*** ChampSim Multicore Out-of-Order Simulator ***

Warmup Instructions: 5000000
Simulation Instructions: 50000000
Configuration: 1
Number of CPUs: 1
LLC sets: 2048
LLC ways: 16
Off-chip DRAM Channels: 1 Width: 64-bit Data Rate: 1600 MT/s


*** ChampSim Multicore Out-of-Order Simulator ***

Warmup Instructions: 5000000
Simulation Instructions: 50000000
Configuration: 1
Number of CPUs: 1
LLC sets: 2048
LLC ways: 16
Off-chip DRAM Channels: 1 Width: 64-bit Data Rate: 1600 MT/s


*** ChampSim Multicore Out-of-Order Simulator ***

Warmup Instructions: 5000000
Simulation Instructions: 50000000
Configuration: 1
Number of CPUs: 1
LLC sets: 2048
LLC ways: 16
Off-chip DRAM Channels: 1 Width: 64-bit Data Rate: 1600 MT/s


*** ChampSim Multicore Out-of-Order Simulator ***

Warmup Instructions: 5000000
Simulation Instructions: 50000000
Configuration: 1
Number of CPUs: 1
LLC sets: 2048
LLC ways: 16
Off-chip DRAM Channels: 1 Width: 64-bit Data Rate: 1600 MT/s


*** ChampSim Multicore Out-of-Order Simulator ***

Warmup Instructions: 5000000
Simulation Instructions: 50000000
Configuration: 1
Number of CPUs: 1
LLC sets: 2048
LLC ways: 16
Off-chip DRAM Channels: 1 Width: 64-bit Data Rate: 1600 MT/s


*** ChampSim Multicore Out-of-Order Simulator ***

Warmup Instructions: 5000000
Simulation Instructions: 50000000
Configuration: 1
Number of CPUs: 1
LLC sets: 2048
LLC ways: 16
Off-chip DRAM Channels: 1 Width: 64-bit Data Rate: 1600 MT/s

CPU 0 runs /datasets/cs240c-wi22-a00-public/data/Assignment2-gz/libquantum_1735B.trace.gz
Heartbeat CPU 0 instructions: 1000003 cycles: 333345 heartbeat IPC: 2.9999 cumulative IPC: 2.9999 (Simulation time: 0 hr 1 min 59 sec) 
CPU 0 runs /datasets/cs240c-wi22-a00-public/data/Assignment2-gz/libquantum_1210B.trace.gz
Heartbeat CPU 0 instructions: 1000003 cycles: 314916 heartbeat IPC: 3.17546 cumulative IPC: 3.17546 (Simulation time: 0 hr 1 min 59 sec) 
CPU 0 runs /datasets/cs240c-wi22-a00-public/data/Assignment2-gz/libquantum_964B.trace.gz
Heartbeat CPU 0 instructions: 1000001 cycles: 333344 heartbeat IPC: 2.99991 cumulative IPC: 2.99991 (Simulation time: 0 hr 2 min 2 sec) 
CPU 0 runs /datasets/cs240c-wi22-a00-public/data/Assignment2-gz/calculix_2670B.trace.gz
Heartbeat CPU 0 instructions: 1000003 cycles: 520140 heartbeat IPC: 1.92257 cumulative IPC: 1.92257 (Simulation time: 0 hr 2 min 15 sec) 
CPU 0 runs /datasets/cs240c-wi22-a00-public/data/Assignment2-gz/calculix_2655B.trace.gz
Heartbeat CPU 0 instructions: 1000003 cycles: 371402 heartbeat IPC: 2.69251 cumulative IPC: 2.69251 (Simulation time: 0 hr 2 min 17 sec) 
CPU 0 runs /datasets/cs240c-wi22-a00-public/data/Assignment2-gz/sphinx3_2520B.trace.gz
Heartbeat CPU 0 instructions: 1000003 cycles: 338265 heartbeat IPC: 2.95627 cumulative IPC: 2.95627 (Simulation time: 0 hr 2 min 31 sec) 
CPU 0 runs /datasets/cs240c-wi22-a00-public/data/Assignment2-gz/zeusmp_600B.trace.gz
Heartbeat CPU 0 instructions: 1000000 cycles: 407507 heartbeat IPC: 2.45395 cumulative IPC: 2.45395 (Simulation time: 0 hr 2 min 32 sec) 
CPU 0 runs /datasets/cs240c-wi22-a00-public/data/Assignment2-gz/zeusmp_100B.trace.gz
Heartbeat CPU 0 instructions: 1000002 cycles: 464468 heartbeat IPC: 2.15301 cumulative IPC: 2.15301 (Simulation time: 0 hr 2 min 36 sec) 
CPU 0 runs /datasets/cs240c-wi22-a00-public/data/Assignment2-gz/zeusmp_300B.trace.gz
Heartbeat CPU 0 instructions: 1000003 cycles: 508391 heartbeat IPC: 1.967 cumulative IPC: 1.967 (Simulation time: 0 hr 2 min 38 sec) 
CPU 0 runs /datasets/cs240c-wi22-a00-public/data/Assignment2-gz/soplex_205B.trace.gz
Heartbeat CPU 0 instructions: 1000000 cycles: 394357 heartbeat IPC: 2.53577 cumulative IPC: 2.53577 (Simulation time: 0 hr 2 min 39 sec) 
CPU 0 runs /datasets/cs240c-wi22-a00-public/data/Assignment2-gz/sphinx3_1339B.trace.gz
Heartbeat CPU 0 instructions: 1000001 cycles: 338437 heartbeat IPC: 2.95476 cumulative IPC: 2.95476 (Simulation time: 0 hr 2 min 41 sec) 
CPU 0 runs /datasets/cs240c-wi22-a00-public/data/Assignment2-gz/lbm_1004B.trace.gz
Heartbeat CPU 0 instructions: 1000002 cycles: 391495 heartbeat IPC: 2.55432 cumulative IPC: 2.55432 (Simulation time: 0 hr 2 min 43 sec) 
CPU 0 runs /datasets/cs240c-wi22-a00-public/data/Assignment2-gz/milc_744B.trace.gz
Heartbeat CPU 0 instructions: 1000000 cycles: 383399 heartbeat IPC: 2.60825 cumulative IPC: 2.60825 (Simulation time: 0 hr 2 min 49 sec) 
CPU 0 runs /datasets/cs240c-wi22-a00-public/data/Assignment2-gz/bzip2_183B.trace.gz
Heartbeat CPU 0 instructions: 1000000 cycles: 448069 heartbeat IPC: 2.2318 cumulative IPC: 2.2318 (Simulation time: 0 hr 2 min 49 sec) 
CPU 0 runs /datasets/cs240c-wi22-a00-public/data/Assignment2-gz/omnetpp_17B.trace.gz
Heartbeat CPU 0 instructions: 1000000 cycles: 559780 heartbeat IPC: 1.78642 cumulative IPC: 1.78642 (Simulation time: 0 hr 2 min 50 sec) 
CPU 0 runs /datasets/cs240c-wi22-a00-public/data/Assignment2-gz/milc_409B.trace.gz
Heartbeat CPU 0 instructions: 1000000 cycles: 402731 heartbeat IPC: 2.48305 cumulative IPC: 2.48305 (Simulation time: 0 hr 2 min 49 sec) 
CPU 0 runs /datasets/cs240c-wi22-a00-public/data/Assignment2-gz/wrf_1650B.trace.gz
Heartbeat CPU 0 instructions: 1000000 cycles: 514412 heartbeat IPC: 1.94397 cumulative IPC: 1.94397 (Simulation time: 0 hr 2 min 50 sec) 
CPU 0 runs /datasets/cs240c-wi22-a00-public/data/Assignment2-gz/bzip2_259B.trace.gz
Heartbeat CPU 0 instructions: 1000002 cycles: 428954 heartbeat IPC: 2.33126 cumulative IPC: 2.33126 (Simulation time: 0 hr 2 min 51 sec) 
CPU 0 runs /datasets/cs240c-wi22-a00-public/data/Assignment2-gz/astar_23B.trace.gz
Heartbeat CPU 0 instructions: 1000000 cycles: 360107 heartbeat IPC: 2.77695 cumulative IPC: 2.77695 (Simulation time: 0 hr 2 min 52 sec) 
CPU 0 runs /datasets/cs240c-wi22-a00-public/data/Assignment2-gz/calculix_3812B.trace.gz
Heartbeat CPU 0 instructions: 1000001 cycles: 475279 heartbeat IPC: 2.10403 cumulative IPC: 2.10403 (Simulation time: 0 hr 2 min 53 sec) 
CPU 0 runs /datasets/cs240c-wi22-a00-public/data/Assignment2-gz/GemsFDTD_716B.trace.gz
Heartbeat CPU 0 instructions: 1000000 cycles: 415494 heartbeat IPC: 2.40677 cumulative IPC: 2.40677 (Simulation time: 0 hr 2 min 53 sec) 
CPU 0 runs /datasets/cs240c-wi22-a00-public/data/Assignment2-gz/sphinx3_883B.trace.gz
Heartbeat CPU 0 instructions: 1000003 cycles: 413061 heartbeat IPC: 2.42096 cumulative IPC: 2.42096 (Simulation time: 0 hr 2 min 52 sec) 
CPU 0 runs /datasets/cs240c-wi22-a00-public/data/Assignment2-gz/omnetpp_4B.trace.gz
Heartbeat CPU 0 instructions: 1000001 cycles: 566835 heartbeat IPC: 1.76418 cumulative IPC: 1.76418 (Simulation time: 0 hr 2 min 55 sec) 
CPU 0 runs /datasets/cs240c-wi22-a00-public/data/Assignment2-gz/lbm_94B.trace.gz
Heartbeat CPU 0 instructions: 1000000 cycles: 422411 heartbeat IPC: 2.36736 cumulative IPC: 2.36736 (Simulation time: 0 hr 2 min 55 sec) 
CPU 0 runs /datasets/cs240c-wi22-a00-public/data/Assignment2-gz/soplex_66B.trace.gz
Heartbeat CPU 0 instructions: 1000003 cycles: 416340 heartbeat IPC: 2.40189 cumulative IPC: 2.40189 (Simulation time: 0 hr 2 min 56 sec) 
CPU 0 runs /datasets/cs240c-wi22-a00-public/data/Assignment2-gz/bzip2_281B.trace.gz
Heartbeat CPU 0 instructions: 1000000 cycles: 445723 heartbeat IPC: 2.24355 cumulative IPC: 2.24355 (Simulation time: 0 hr 2 min 58 sec) 
CPU 0 runs /datasets/cs240c-wi22-a00-public/data/Assignment2-gz/gcc_39B.trace.gz
Heartbeat CPU 0 instructions: 1000000 cycles: 510392 heartbeat IPC: 1.95928 cumulative IPC: 1.95928 (Simulation time: 0 hr 2 min 59 sec) 
CPU 0 runs /datasets/cs240c-wi22-a00-public/data/Assignment2-gz/lbm_564B.trace.gz
Heartbeat CPU 0 instructions: 1000000 cycles: 390238 heartbeat IPC: 2.56254 cumulative IPC: 2.56254 (Simulation time: 0 hr 3 min 3 sec) 
CPU 0 runs /datasets/cs240c-wi22-a00-public/data/Assignment2-gz/soplex_217B.trace.gz
Heartbeat CPU 0 instructions: 1000000 cycles: 437362 heartbeat IPC: 2.28644 cumulative IPC: 2.28644 (Simulation time: 0 hr 3 min 5 sec) 
CPU 0 runs /datasets/cs240c-wi22-a00-public/data/Assignment2-gz/astar_163B.trace.gz
Heartbeat CPU 0 instructions: 1000002 cycles: 530774 heartbeat IPC: 1.88404 cumulative IPC: 1.88404 (Simulation time: 0 hr 3 min 5 sec) 
CPU 0 runs /datasets/cs240c-wi22-a00-public/data/Assignment2-gz/perlbench_105B.trace.gz
Heartbeat CPU 0 instructions: 1000000 cycles: 578082 heartbeat IPC: 1.72986 cumulative IPC: 1.72986 (Simulation time: 0 hr 3 min 7 sec) 
CPU 0 runs /datasets/cs240c-wi22-a00-public/data/Assignment2-gz/gcc_13B.trace.gz
Heartbeat CPU 0 instructions: 1000000 cycles: 644728 heartbeat IPC: 1.55104 cumulative IPC: 1.55104 (Simulation time: 0 hr 3 min 10 sec) 
CPU 0 runs /datasets/cs240c-wi22-a00-public/data/Assignment2-gz/milc_360B.trace.gz
Heartbeat CPU 0 instructions: 1000001 cycles: 549889 heartbeat IPC: 1.81855 cumulative IPC: 1.81855 (Simulation time: 0 hr 3 min 10 sec) 
CPU 0 runs /datasets/cs240c-wi22-a00-public/data/Assignment2-gz/wrf_1212B.trace.gz
Heartbeat CPU 0 instructions: 1000001 cycles: 599253 heartbeat IPC: 1.66875 cumulative IPC: 1.66875 (Simulation time: 0 hr 3 min 14 sec) 
CPU 0 runs /datasets/cs240c-wi22-a00-public/data/Assignment2-gz/omnetpp_340B.trace.gz
Heartbeat CPU 0 instructions: 1000001 cycles: 578280 heartbeat IPC: 1.72927 cumulative IPC: 1.72927 (Simulation time: 0 hr 3 min 17 sec) 
CPU 0 runs /datasets/cs240c-wi22-a00-public/data/Assignment2-gz/perlbench_53B.trace.gz
Heartbeat CPU 0 instructions: 1000000 cycles: 617122 heartbeat IPC: 1.62043 cumulative IPC: 1.62043 (Simulation time: 0 hr 3 min 16 sec) 
CPU 0 runs /datasets/cs240c-wi22-a00-public/data/Assignment2-gz/perlbench_135B.trace.gz
Heartbeat CPU 0 instructions: 1000000 cycles: 601490 heartbeat IPC: 1.66254 cumulative IPC: 1.66254 (Simulation time: 0 hr 3 min 17 sec) 
CPU 0 runs /datasets/cs240c-wi22-a00-public/data/Assignment2-gz/cactusADM_734B.trace.gz
Heartbeat CPU 0 instructions: 1000003 cycles: 592365 heartbeat IPC: 1.68815 cumulative IPC: 1.68815 (Simulation time: 0 hr 3 min 20 sec) 
CPU 0 runs /datasets/cs240c-wi22-a00-public/data/Assignment2-gz/leslie3d_94B.trace.gz
Heartbeat CPU 0 instructions: 1000003 cycles: 592147 heartbeat IPC: 1.68877 cumulative IPC: 1.68877 (Simulation time: 0 hr 3 min 20 sec) 
CPU 0 runs /datasets/cs240c-wi22-a00-public/data/Assignment2-gz/cactusADM_1495B.trace.gz
Heartbeat CPU 0 instructions: 1000003 cycles: 593354 heartbeat IPC: 1.68534 cumulative IPC: 1.68534 (Simulation time: 0 hr 3 min 21 sec) 
CPU 0 runs /datasets/cs240c-wi22-a00-public/data/Assignment2-gz/mcf_46B.trace.gz
Heartbeat CPU 0 instructions: 1000002 cycles: 482122 heartbeat IPC: 2.07417 cumulative IPC: 2.07417 (Simulation time: 0 hr 3 min 22 sec) 
CPU 0 runs /datasets/cs240c-wi22-a00-public/data/Assignment2-gz/leslie3d_1116B.trace.gz
Heartbeat CPU 0 instructions: 1000001 cycles: 532936 heartbeat IPC: 1.8764 cumulative IPC: 1.8764 (Simulation time: 0 hr 3 min 24 sec) 
CPU 0 runs /datasets/cs240c-wi22-a00-public/data/Assignment2-gz/mcf_250B.trace.gz
Heartbeat CPU 0 instructions: 1000000 cycles: 526973 heartbeat IPC: 1.89763 cumulative IPC: 1.89763 (Simulation time: 0 hr 3 min 25 sec) 
CPU 0 runs /datasets/cs240c-wi22-a00-public/data/Assignment2-gz/mcf_158B.trace.gz
Heartbeat CPU 0 instructions: 1000002 cycles: 496589 heartbeat IPC: 2.01374 cumulative IPC: 2.01374 (Simulation time: 0 hr 3 min 25 sec) 
CPU 0 runs /datasets/cs240c-wi22-a00-public/data/Assignment2-gz/wrf_1228B.trace.gz
Heartbeat CPU 0 instructions: 1000003 cycles: 590333 heartbeat IPC: 1.69396 cumulative IPC: 1.69396 (Simulation time: 0 hr 3 min 25 sec) 
CPU 0 runs /datasets/cs240c-wi22-a00-public/data/Assignment2-gz/gcc_56B.trace.gz
Heartbeat CPU 0 instructions: 1000003 cycles: 954224 heartbeat IPC: 1.04798 cumulative IPC: 1.04798 (Simulation time: 0 hr 3 min 27 sec) 
CPU 0 runs /datasets/cs240c-wi22-a00-public/data/Assignment2-gz/cactusADM_1039B.trace.gz
Heartbeat CPU 0 instructions: 1000000 cycles: 595112 heartbeat IPC: 1.68036 cumulative IPC: 1.68036 (Simulation time: 0 hr 3 min 30 sec) 
CPU 0 runs /datasets/cs240c-wi22-a00-public/data/Assignment2-gz/GemsFDTD_712B.trace.gz
Heartbeat CPU 0 instructions: 1000003 cycles: 633083 heartbeat IPC: 1.57958 cumulative IPC: 1.57958 (Simulation time: 0 hr 3 min 34 sec) 
CPU 0 runs /datasets/cs240c-wi22-a00-public/data/Assignment2-gz/astar_313B.trace.gz
Heartbeat CPU 0 instructions: 1000001 cycles: 678650 heartbeat IPC: 1.47352 cumulative IPC: 1.47352 (Simulation time: 0 hr 3 min 39 sec) 
CPU 0 runs /datasets/cs240c-wi22-a00-public/data/Assignment2-gz/leslie3d_1186B.trace.gz
Heartbeat CPU 0 instructions: 1000002 cycles: 557793 heartbeat IPC: 1.79278 cumulative IPC: 1.79278 (Simulation time: 0 hr 3 min 38 sec) 
CPU 0 runs /datasets/cs240c-wi22-a00-public/data/Assignment2-gz/GemsFDTD_109B.trace.gz
Heartbeat CPU 0 instructions: 1000002 cycles: 577063 heartbeat IPC: 1.73292 cumulative IPC: 1.73292 (Simulation time: 0 hr 3 min 40 sec) 
Heartbeat CPU 0 instructions: 2000001 cycles: 666677 heartbeat IPC: 3 cumulative IPC: 2.99995 (Simulation time: 0 hr 3 min 56 sec) 
Heartbeat CPU 0 instructions: 2000003 cycles: 666677 heartbeat IPC: 3.00001 cumulative IPC: 2.99996 (Simulation time: 0 hr 3 min 58 sec) 
Heartbeat CPU 0 instructions: 2000000 cycles: 630173 heartbeat IPC: 3.17201 cumulative IPC: 3.17373 (Simulation time: 0 hr 3 min 58 sec) 
Heartbeat CPU 0 instructions: 2000001 cycles: 1039679 heartbeat IPC: 1.92478 cumulative IPC: 1.92367 (Simulation time: 0 hr 4 min 29 sec) 
Heartbeat CPU 0 instructions: 2000001 cycles: 746536 heartbeat IPC: 2.66571 cumulative IPC: 2.67904 (Simulation time: 0 hr 4 min 36 sec) 
Heartbeat CPU 0 instructions: 2000001 cycles: 814374 heartbeat IPC: 2.45781 cumulative IPC: 2.45588 (Simulation time: 0 hr 4 min 59 sec) 
Heartbeat CPU 0 instructions: 2000003 cycles: 1059161 heartbeat IPC: 1.81564 cumulative IPC: 1.88829 (Simulation time: 0 hr 5 min 10 sec) 
Heartbeat CPU 0 instructions: 2000001 cycles: 928928 heartbeat IPC: 2.15304 cumulative IPC: 2.15302 (Simulation time: 0 hr 5 min 12 sec) 
Heartbeat CPU 0 instructions: 2000000 cycles: 735301 heartbeat IPC: 2.51866 cumulative IPC: 2.71997 (Simulation time: 0 hr 5 min 13 sec) 
Heartbeat CPU 0 instructions: 2000001 cycles: 691941 heartbeat IPC: 2.82882 cumulative IPC: 2.89042 (Simulation time: 0 hr 5 min 21 sec) 
Heartbeat CPU 0 instructions: 2000002 cycles: 890222 heartbeat IPC: 2.01668 cumulative IPC: 2.24663 (Simulation time: 0 hr 5 min 21 sec) 
Heartbeat CPU 0 instructions: 2000001 cycles: 782981 heartbeat IPC: 2.55437 cumulative IPC: 2.55434 (Simulation time: 0 hr 5 min 28 sec) 
Heartbeat CPU 0 instructions: 2000001 cycles: 766759 heartbeat IPC: 2.60852 cumulative IPC: 2.60838 (Simulation time: 0 hr 5 min 35 sec) 
Heartbeat CPU 0 instructions: 2000002 cycles: 1133976 heartbeat IPC: 1.74157 cumulative IPC: 1.76371 (Simulation time: 0 hr 5 min 35 sec) 
Heartbeat CPU 0 instructions: 2000000 cycles: 812709 heartbeat IPC: 2.56214 cumulative IPC: 2.46091 (Simulation time: 0 hr 5 min 39 sec) 
Heartbeat CPU 0 instructions: 2000002 cycles: 949743 heartbeat IPC: 2.10764 cumulative IPC: 2.10583 (Simulation time: 0 hr 5 min 39 sec) 
Heartbeat CPU 0 instructions: 2000001 cycles: 721007 heartbeat IPC: 2.77085 cumulative IPC: 2.7739 (Simulation time: 0 hr 5 min 42 sec) 
Heartbeat CPU 0 instructions: 2000000 cycles: 882610 heartbeat IPC: 2.08386 cumulative IPC: 2.26601 (Simulation time: 0 hr 5 min 42 sec) 
Heartbeat CPU 0 instructions: 2000003 cycles: 830875 heartbeat IPC: 2.40744 cumulative IPC: 2.4071 (Simulation time: 0 hr 5 min 43 sec) 
Heartbeat CPU 0 instructions: 2000000 cycles: 1028660 heartbeat IPC: 1.94459 cumulative IPC: 1.94428 (Simulation time: 0 hr 5 min 42 sec) 
Heartbeat CPU 0 instructions: 2000003 cycles: 797953 heartbeat IPC: 2.77323 cumulative IPC: 2.50642 (Simulation time: 0 hr 5 min 45 sec) 
Heartbeat CPU 0 instructions: 2000001 cycles: 1135266 heartbeat IPC: 1.75923 cumulative IPC: 1.7617 (Simulation time: 0 hr 5 min 45 sec) 
Heartbeat CPU 0 instructions: 2000003 cycles: 899728 heartbeat IPC: 2.20263 cumulative IPC: 2.2229 (Simulation time: 0 hr 5 min 45 sec) 
Heartbeat CPU 0 instructions: 2000003 cycles: 861405 heartbeat IPC: 2.3124 cumulative IPC: 2.32179 (Simulation time: 0 hr 5 min 47 sec) 
Heartbeat CPU 0 instructions: 2000000 cycles: 821532 heartbeat IPC: 2.44815 cumulative IPC: 2.43448 (Simulation time: 0 hr 5 min 47 sec) 
Heartbeat CPU 0 instructions: 2000001 cycles: 951159 heartbeat IPC: 1.98772 cumulative IPC: 2.1027 (Simulation time: 0 hr 5 min 52 sec) 
Heartbeat CPU 0 instructions: 3000001 cycles: 989047 heartbeat IPC: 3.10202 cumulative IPC: 3.03322 (Simulation time: 0 hr 5 min 53 sec) 
Heartbeat CPU 0 instructions: 3000003 cycles: 945982 heartbeat IPC: 3.16648 cumulative IPC: 3.17131 (Simulation time: 0 hr 5 min 55 sec) 
Heartbeat CPU 0 instructions: 3000000 cycles: 1000009 heartbeat IPC: 3.00001 cumulative IPC: 2.99997 (Simulation time: 0 hr 5 min 57 sec) 
Heartbeat CPU 0 instructions: 2000003 cycles: 785321 heartbeat IPC: 2.53112 cumulative IPC: 2.54673 (Simulation time: 0 hr 5 min 57 sec) 
Heartbeat CPU 0 instructions: 2000002 cycles: 842802 heartbeat IPC: 2.34487 cumulative IPC: 2.37304 (Simulation time: 0 hr 6 min 2 sec) 
Heartbeat CPU 0 instructions: 2000002 cycles: 1020757 heartbeat IPC: 1.95939 cumulative IPC: 1.95933 (Simulation time: 0 hr 6 min 4 sec) 
Heartbeat CPU 0 instructions: 2000003 cycles: 1060018 heartbeat IPC: 1.88949 cumulative IPC: 1.88676 (Simulation time: 0 hr 6 min 11 sec) 
Heartbeat CPU 0 instructions: 2000003 cycles: 1099779 heartbeat IPC: 1.81855 cumulative IPC: 1.81855 (Simulation time: 0 hr 6 min 12 sec) 
Heartbeat CPU 0 instructions: 2000001 cycles: 1164382 heartbeat IPC: 1.70561 cumulative IPC: 1.71765 (Simulation time: 0 hr 6 min 12 sec) 
Heartbeat CPU 0 instructions: 2000001 cycles: 1257217 heartbeat IPC: 1.63268 cumulative IPC: 1.59082 (Simulation time: 0 hr 6 min 21 sec) 
Heartbeat CPU 0 instructions: 2000000 cycles: 1212073 heartbeat IPC: 1.63778 cumulative IPC: 1.65007 (Simulation time: 0 hr 6 min 23 sec) 
Heartbeat CPU 0 instructions: 2000000 cycles: 1198243 heartbeat IPC: 1.66948 cumulative IPC: 1.66911 (Simulation time: 0 hr 6 min 28 sec) 
Heartbeat CPU 0 instructions: 2000001 cycles: 1255808 heartbeat IPC: 1.56572 cumulative IPC: 1.5926 (Simulation time: 0 hr 6 min 32 sec) 
Heartbeat CPU 0 instructions: 2000001 cycles: 1185295 heartbeat IPC: 1.68654 cumulative IPC: 1.68734 (Simulation time: 0 hr 6 min 35 sec) 
Heartbeat CPU 0 instructions: 2000002 cycles: 967664 heartbeat IPC: 2.05955 cumulative IPC: 2.06684 (Simulation time: 0 hr 6 min 35 sec) 
Heartbeat CPU 0 instructions: 2000000 cycles: 1162467 heartbeat IPC: 1.71178 cumulative IPC: 1.72048 (Simulation time: 0 hr 6 min 40 sec) 
Heartbeat CPU 0 instructions: 2000002 cycles: 1206641 heartbeat IPC: 1.62735 cumulative IPC: 1.6575 (Simulation time: 0 hr 6 min 41 sec) 
Heartbeat CPU 0 instructions: 2000000 cycles: 1186182 heartbeat IPC: 1.68682 cumulative IPC: 1.68608 (Simulation time: 0 hr 6 min 44 sec) 
Heartbeat CPU 0 instructions: 3000001 cycles: 1559976 heartbeat IPC: 1.92198 cumulative IPC: 1.92311 (Simulation time: 0 hr 6 min 46 sec) 
Heartbeat CPU 0 instructions: 2000002 cycles: 1100530 heartbeat IPC: 1.96003 cumulative IPC: 1.81731 (Simulation time: 0 hr 6 min 46 sec) 
Heartbeat CPU 0 instructions: 2000002 cycles: 1190036 heartbeat IPC: 1.68089 cumulative IPC: 1.68062 (Simulation time: 0 hr 6 min 48 sec) 
Heartbeat CPU 0 instructions: 2000002 cycles: 992268 heartbeat IPC: 2.01743 cumulative IPC: 2.01559 (Simulation time: 0 hr 6 min 48 sec) 
Heartbeat CPU 0 instructions: 2000003 cycles: 1066398 heartbeat IPC: 1.87455 cumulative IPC: 1.87548 (Simulation time: 0 hr 6 min 50 sec) 
Heartbeat CPU 0 instructions: 3000002 cycles: 1121180 heartbeat IPC: 2.6692 cumulative IPC: 2.67575 (Simulation time: 0 hr 6 min 51 sec) 
Heartbeat CPU 0 instructions: 2000003 cycles: 1028912 heartbeat IPC: 1.99228 cumulative IPC: 1.9438 (Simulation time: 0 hr 6 min 57 sec) 
Heartbeat CPU 0 instructions: 2000001 cycles: 1898520 heartbeat IPC: 1.05899 cumulative IPC: 1.05345 (Simulation time: 0 hr 7 min 0 sec) 
Heartbeat CPU 0 instructions: 2000000 cycles: 1266011 heartbeat IPC: 1.57995 cumulative IPC: 1.57977 (Simulation time: 0 hr 7 min 9 sec) 
Heartbeat CPU 0 instructions: 2000003 cycles: 1269523 heartbeat IPC: 1.69241 cumulative IPC: 1.5754 (Simulation time: 0 hr 7 min 24 sec) 
Heartbeat CPU 0 instructions: 2000003 cycles: 1154104 heartbeat IPC: 1.73298 cumulative IPC: 1.73295 (Simulation time: 0 hr 7 min 27 sec) 
Heartbeat CPU 0 instructions: 2000000 cycles: 1204525 heartbeat IPC: 1.54623 cumulative IPC: 1.66041 (Simulation time: 0 hr 7 min 29 sec) 
Heartbeat CPU 0 instructions: 3000003 cycles: 1221893 heartbeat IPC: 2.45388 cumulative IPC: 2.45521 (Simulation time: 0 hr 7 min 35 sec) 
Heartbeat CPU 0 instructions: 3000003 cycles: 1181536 heartbeat IPC: 2.24098 cumulative IPC: 2.53907 (Simulation time: 0 hr 7 min 42 sec) 
Heartbeat CPU 0 instructions: 3000002 cycles: 1602081 heartbeat IPC: 1.84189 cumulative IPC: 1.87257 (Simulation time: 0 hr 7 min 42 sec) 
Heartbeat CPU 0 instructions: 3000003 cycles: 1393617 heartbeat IPC: 2.15198 cumulative IPC: 2.15267 (Simulation time: 0 hr 7 min 43 sec) 
Heartbeat CPU 0 instructions: 4000000 cycles: 1290772 heartbeat IPC: 3.31427 cumulative IPC: 3.09892 (Simulation time: 0 hr 7 min 52 sec) 
Heartbeat CPU 0 instructions: 4000000 cycles: 1260334 heartbeat IPC: 3.18114 cumulative IPC: 3.17376 (Simulation time: 0 hr 7 min 52 sec) 
Heartbeat CPU 0 instructions: 4000000 cycles: 1333342 heartbeat IPC: 3 cumulative IPC: 2.99998 (Simulation time: 0 hr 7 min 54 sec) 
Heartbeat CPU 0 instructions: 3000000 cycles: 1081973 heartbeat IPC: 2.56389 cumulative IPC: 2.77271 (Simulation time: 0 hr 8 min 2 sec) 
Heartbeat CPU 0 instructions: 3000001 cycles: 1769211 heartbeat IPC: 1.57422 cumulative IPC: 1.69567 (Simulation time: 0 hr 8 min 4 sec) 
Heartbeat CPU 0 instructions: 3000001 cycles: 1150170 heartbeat IPC: 2.60817 cumulative IPC: 2.60831 (Simulation time: 0 hr 8 min 17 sec) 
Heartbeat CPU 0 instructions: 3000000 cycles: 1211869 heartbeat IPC: 2.50526 cumulative IPC: 2.47552 (Simulation time: 0 hr 8 min 18 sec) 
Heartbeat CPU 0 instructions: 3000001 cycles: 1174398 heartbeat IPC: 2.55482 cumulative IPC: 2.5545 (Simulation time: 0 hr 8 min 18 sec) 
Heartbeat CPU 0 instructions: 3000000 cycles: 1286935 heartbeat IPC: 2.19269 cumulative IPC: 2.33112 (Simulation time: 0 hr 8 min 23 sec) 
Heartbeat CPU 0 instructions: 3000003 cycles: 1294920 heartbeat IPC: 2.11244 cumulative IPC: 2.31675 (Simulation time: 0 hr 8 min 25 sec) 
Heartbeat CPU 0 instructions: 3000002 cycles: 1314517 heartbeat IPC: 2.41086 cumulative IPC: 2.28221 (Simulation time: 0 hr 8 min 29 sec) 
Heartbeat CPU 0 instructions: 3000000 cycles: 1079958 heartbeat IPC: 2.78589 cumulative IPC: 2.77789 (Simulation time: 0 hr 8 min 30 sec) 
Heartbeat CPU 0 instructions: 3000001 cycles: 1546521 heartbeat IPC: 1.93102 cumulative IPC: 1.93984 (Simulation time: 0 hr 8 min 29 sec) 
Heartbeat CPU 0 instructions: 3000001 cycles: 1287146 heartbeat IPC: 2.34884 cumulative IPC: 2.33074 (Simulation time: 0 hr 8 min 35 sec) 
Heartbeat CPU 0 instructions: 3000001 cycles: 1722606 heartbeat IPC: 1.70259 cumulative IPC: 1.74155 (Simulation time: 0 hr 8 min 39 sec) 
Heartbeat CPU 0 instructions: 3000002 cycles: 1425613 heartbeat IPC: 2.10141 cumulative IPC: 2.10436 (Simulation time: 0 hr 8 min 41 sec) 
Heartbeat CPU 0 instructions: 3000000 cycles: 1248955 heartbeat IPC: 2.21728 cumulative IPC: 2.40201 (Simulation time: 0 hr 8 min 42 sec) 
Heartbeat CPU 0 instructions: 3000000 cycles: 1360075 heartbeat IPC: 2.12832 cumulative IPC: 2.20576 (Simulation time: 0 hr 8 min 41 sec) 
Heartbeat CPU 0 instructions: 3000001 cycles: 1457648 heartbeat IPC: 1.97438 cumulative IPC: 2.05811 (Simulation time: 0 hr 8 min 45 sec) 
Heartbeat CPU 0 instructions: 3000002 cycles: 1175571 heartbeat IPC: 2.56246 cumulative IPC: 2.55195 (Simulation time: 0 hr 8 min 47 sec) 
Heartbeat CPU 0 instructions: 4000000 cycles: 2081696 heartbeat IPC: 1.91674 cumulative IPC: 1.92151 (Simulation time: 0 hr 8 min 58 sec) 
Heartbeat CPU 0 instructions: 3000002 cycles: 1529819 heartbeat IPC: 1.9644 cumulative IPC: 1.96102 (Simulation time: 0 hr 9 min 4 sec) 
Heartbeat CPU 0 instructions: 4000000 cycles: 1487470 heartbeat IPC: 2.73007 cumulative IPC: 2.68913 (Simulation time: 0 hr 9 min 10 sec) 
Heartbeat CPU 0 instructions: 3000001 cycles: 1649612 heartbeat IPC: 1.81873 cumulative IPC: 1.81861 (Simulation time: 0 hr 9 min 10 sec) 
Heartbeat CPU 0 instructions: 3000002 cycles: 1589730 heartbeat IPC: 1.88782 cumulative IPC: 1.88711 (Simulation time: 0 hr 9 min 11 sec) 
Heartbeat CPU 0 instructions: 3000003 cycles: 1662911 heartbeat IPC: 1.28156 cumulative IPC: 1.80407 (Simulation time: 0 hr 9 min 10 sec) 
Heartbeat CPU 0 instructions: 3000003 cycles: 1252393 heartbeat IPC: 2.44146 cumulative IPC: 2.39542 (Simulation time: 0 hr 9 min 15 sec) 
Heartbeat CPU 0 instructions: 3000001 cycles: 1726618 heartbeat IPC: 1.77861 cumulative IPC: 1.7375 (Simulation time: 0 hr 9 min 15 sec) 
Heartbeat CPU 0 instructions: 3000000 cycles: 1735178 heartbeat IPC: 2.09222 cumulative IPC: 1.72893 (Simulation time: 0 hr 9 min 17 sec) 
Heartbeat CPU 0 instructions: 3000000 cycles: 1836606 heartbeat IPC: 1.6012 cumulative IPC: 1.63345 (Simulation time: 0 hr 9 min 25 sec) 
Heartbeat CPU 0 instructions: 3000001 cycles: 1797630 heartbeat IPC: 1.66837 cumulative IPC: 1.66886 (Simulation time: 0 hr 9 min 33 sec) 
Heartbeat CPU 0 instructions: 3000002 cycles: 1912368 heartbeat IPC: 1.52309 cumulative IPC: 1.56874 (Simulation time: 0 hr 9 min 42 sec) 
Heartbeat CPU 0 instructions: 5000000 cycles: 1592498 heartbeat IPC: 3.31427 cumulative IPC: 3.13972 (Simulation time: 0 hr 9 min 44 sec) 

Warmup complete CPU 0 instructions: 5000004 cycles: 1592499 (Simulation time: 0 hr 9 min 44 sec) 

Heartbeat CPU 0 instructions: 3000000 cycles: 1484218 heartbeat IPC: 1.9359 cumulative IPC: 2.02127 (Simulation time: 0 hr 9 min 46 sec) 
Heartbeat CPU 0 instructions: 5000000 cycles: 1576820 heartbeat IPC: 3.1597 cumulative IPC: 3.17094 (Simulation time: 0 hr 9 min 50 sec) 

Warmup complete CPU 0 instructions: 5000004 cycles: 1576821 (Simulation time: 0 hr 9 min 50 sec) 

Heartbeat CPU 0 instructions: 3000003 cycles: 1778084 heartbeat IPC: 1.68694 cumulative IPC: 1.68721 (Simulation time: 0 hr 9 min 51 sec) 
Heartbeat CPU 0 instructions: 5000001 cycles: 1666677 heartbeat IPC: 2.99999 cumulative IPC: 2.99998 (Simulation time: 0 hr 9 min 52 sec) 

Warmup complete CPU 0 instructions: 5000001 cycles: 1666677 (Simulation time: 0 hr 9 min 52 sec) 

Heartbeat CPU 0 instructions: 4000000 cycles: 1629601 heartbeat IPC: 2.45273 cumulative IPC: 2.45459 (Simulation time: 0 hr 9 min 55 sec) 
Heartbeat CPU 0 instructions: 3000001 cycles: 1760249 heartbeat IPC: 1.67285 cumulative IPC: 1.7043 (Simulation time: 0 hr 9 min 59 sec) 
Heartbeat CPU 0 instructions: 3000003 cycles: 1779362 heartbeat IPC: 1.68583 cumulative IPC: 1.686 (Simulation time: 0 hr 10 min 0 sec) 
Heartbeat CPU 0 instructions: 3000003 cycles: 1785063 heartbeat IPC: 1.6806 cumulative IPC: 1.68061 (Simulation time: 0 hr 10 min 5 sec) 
Heartbeat CPU 0 instructions: 3000000 cycles: 1488568 heartbeat IPC: 2.01491 cumulative IPC: 2.01536 (Simulation time: 0 hr 10 min 6 sec) 
Heartbeat CPU 0 instructions: 3000003 cycles: 1600517 heartbeat IPC: 1.87224 cumulative IPC: 1.8744 (Simulation time: 0 hr 10 min 8 sec) 
Heartbeat CPU 0 instructions: 4000000 cycles: 1519954 heartbeat IPC: 2.95492 cumulative IPC: 2.63166 (Simulation time: 0 hr 10 min 8 sec) 
Heartbeat CPU 0 instructions: 4000000 cycles: 2087846 heartbeat IPC: 2.0586 cumulative IPC: 1.91585 (Simulation time: 0 hr 10 min 8 sec) 
Heartbeat CPU 0 instructions: 3000002 cycles: 1512415 heartbeat IPC: 2.06824 cumulative IPC: 1.98358 (Simulation time: 0 hr 10 min 11 sec) 
Heartbeat CPU 0 instructions: 3000002 cycles: 1854530 heartbeat IPC: 1.54347 cumulative IPC: 1.61766 (Simulation time: 0 hr 10 min 11 sec) 
Heartbeat CPU 0 instructions: 4000000 cycles: 1858062 heartbeat IPC: 2.1531 cumulative IPC: 2.15278 (Simulation time: 0 hr 10 min 12 sec) 
Heartbeat CPU 0 instructions: 3000000 cycles: 1708674 heartbeat IPC: 1.64434 cumulative IPC: 1.75575 (Simulation time: 0 hr 10 min 14 sec) 
Heartbeat CPU 0 instructions: 3000001 cycles: 2885882 heartbeat IPC: 1.0128 cumulative IPC: 1.03954 (Simulation time: 0 hr 10 min 23 sec) 
Heartbeat CPU 0 instructions: 3000000 cycles: 1898532 heartbeat IPC: 1.58098 cumulative IPC: 1.58017 (Simulation time: 0 hr 10 min 25 sec) 
Heartbeat CPU 0 instructions: 4000000 cycles: 1526801 heartbeat IPC: 2.24806 cumulative IPC: 2.61986 (Simulation time: 0 hr 10 min 28 sec) 
Heartbeat CPU 0 instructions: 4000000 cycles: 2334140 heartbeat IPC: 1.77013 cumulative IPC: 1.71369 (Simulation time: 0 hr 10 min 41 sec) 
Heartbeat CPU 0 instructions: 4000000 cycles: 1533552 heartbeat IPC: 2.60836 cumulative IPC: 2.60832 (Simulation time: 0 hr 10 min 50 sec) 
Heartbeat CPU 0 instructions: 3000003 cycles: 1946924 heartbeat IPC: 1.47623 cumulative IPC: 1.54089 (Simulation time: 0 hr 10 min 53 sec) 
Heartbeat CPU 0 instructions: 4000000 cycles: 1633292 heartbeat IPC: 2.95532 cumulative IPC: 2.44904 (Simulation time: 0 hr 10 min 58 sec) 
Heartbeat CPU 0 instructions: 4000000 cycles: 1570639 heartbeat IPC: 2.52371 cumulative IPC: 2.54673 (Simulation time: 0 hr 10 min 59 sec) 
Heartbeat CPU 0 instructions: 4000000 cycles: 1744228 heartbeat IPC: 2.18678 cumulative IPC: 2.29328 (Simulation time: 0 hr 11 min 0 sec) 
Heartbeat CPU 0 instructions: 4000000 cycles: 1632043 heartbeat IPC: 2.37997 cumulative IPC: 2.45092 (Simulation time: 0 hr 11 min 2 sec) 
Heartbeat CPU 0 instructions: 4000000 cycles: 1685678 heartbeat IPC: 2.50921 cumulative IPC: 2.37293 (Simulation time: 0 hr 11 min 3 sec) 
Heartbeat CPU 0 instructions: 4000000 cycles: 2064469 heartbeat IPC: 1.93069 cumulative IPC: 1.93754 (Simulation time: 0 hr 11 min 6 sec) 
Heartbeat CPU 0 instructions: 3000000 cycles: 1730667 heartbeat IPC: 1.73441 cumulative IPC: 1.73344 (Simulation time: 0 hr 11 min 7 sec) 
Heartbeat CPU 0 instructions: 3000000 cycles: 1851620 heartbeat IPC: 1.54537 cumulative IPC: 1.6202 (Simulation time: 0 hr 11 min 7 sec) 
Heartbeat CPU 0 instructions: 4000000 cycles: 1753058 heartbeat IPC: 2.28028 cumulative IPC: 2.28173 (Simulation time: 0 hr 11 min 12 sec) 
Heartbeat CPU 0 instructions: 4000000 cycles: 1441419 heartbeat IPC: 2.76655 cumulative IPC: 2.77504 (Simulation time: 0 hr 11 min 13 sec) 
Heartbeat CPU 0 instructions: 5000000 cycles: 2602077 heartbeat IPC: 1.92167 cumulative IPC: 1.92154 (Simulation time: 0 hr 11 min 18 sec) 

Warmup complete CPU 0 instructions: 5000001 cycles: 2602078 (Simulation time: 0 hr 11 min 18 sec) 

Heartbeat CPU 0 instructions: 5000003 cycles: 1860159 heartbeat IPC: 2.68321 cumulative IPC: 2.68794 (Simulation time: 0 hr 11 min 22 sec) 

Warmup complete CPU 0 instructions: 5000003 cycles: 1860159 (Simulation time: 0 hr 11 min 22 sec) 

Heartbeat CPU 0 instructions: 4000000 cycles: 1722588 heartbeat IPC: 2.75852 cumulative IPC: 2.32209 (Simulation time: 0 hr 11 min 22 sec) 
Heartbeat CPU 0 instructions: 4000000 cycles: 2291843 heartbeat IPC: 1.75674 cumulative IPC: 1.74532 (Simulation time: 0 hr 11 min 28 sec) 
Heartbeat CPU 0 instructions: 4000000 cycles: 1686682 heartbeat IPC: 2.28453 cumulative IPC: 2.37152 (Simulation time: 0 hr 11 min 28 sec) 
Heartbeat CPU 0 instructions: 4000000 cycles: 1895811 heartbeat IPC: 2.12676 cumulative IPC: 2.10992 (Simulation time: 0 hr 11 min 29 sec) 
Heartbeat CPU 0 instructions: 4000000 cycles: 1928242 heartbeat IPC: 2.12497 cumulative IPC: 2.07443 (Simulation time: 0 hr 11 min 31 sec) 
Heartbeat CPU 0 instructions: 4000000 cycles: 1565781 heartbeat IPC: 2.56272 cumulative IPC: 2.55464 (Simulation time: 0 hr 11 min 39 sec) 
Heartbeat CPU 0 instructions: 4000000 cycles: 1637577 heartbeat IPC: 2.59615 cumulative IPC: 2.44263 (Simulation time: 0 hr 12 min 0 sec) 
Heartbeat CPU 0 instructions: 4000000 cycles: 2038994 heartbeat IPC: 1.96396 cumulative IPC: 1.96175 (Simulation time: 0 hr 12 min 1 sec) 
Heartbeat CPU 0 instructions: 4000000 cycles: 2199464 heartbeat IPC: 1.81867 cumulative IPC: 1.81862 (Simulation time: 0 hr 12 min 10 sec) 
Heartbeat CPU 0 instructions: 4000000 cycles: 2119462 heartbeat IPC: 1.88774 cumulative IPC: 1.88727 (Simulation time: 0 hr 12 min 13 sec) 
Heartbeat CPU 0 instructions: 4000000 cycles: 2306048 heartbeat IPC: 1.72583 cumulative IPC: 1.73457 (Simulation time: 0 hr 12 min 13 sec) 
Heartbeat CPU 0 instructions: 4000000 cycles: 2212947 heartbeat IPC: 2.09306 cumulative IPC: 1.80754 (Simulation time: 0 hr 12 min 17 sec) 
Heartbeat CPU 0 instructions: 5000001 cycles: 2037319 heartbeat IPC: 2.45268 cumulative IPC: 2.45421 (Simulation time: 0 hr 12 min 19 sec) 

Warmup complete CPU 0 instructions: 5000001 cycles: 2037319 (Simulation time: 0 hr 12 min 19 sec) 

Heartbeat CPU 0 instructions: 4000000 cycles: 2497342 heartbeat IPC: 1.51346 cumulative IPC: 1.6017 (Simulation time: 0 hr 12 min 33 sec) 
Heartbeat CPU 0 instructions: 6000001 cycles: 5165586 heartbeat IPC: 0.27987 cumulative IPC: 0.279869 (Simulation time: 0 hr 12 min 36 sec) 
Heartbeat CPU 0 instructions: 4000000 cycles: 2528843 heartbeat IPC: 1.62212 cumulative IPC: 1.58175 (Simulation time: 0 hr 12 min 37 sec) 
Heartbeat CPU 0 instructions: 4000000 cycles: 2396228 heartbeat IPC: 1.67057 cumulative IPC: 1.66929 (Simulation time: 0 hr 12 min 38 sec) 
Heartbeat CPU 0 instructions: 5000003 cycles: 2322491 heartbeat IPC: 2.15319 cumulative IPC: 2.15286 (Simulation time: 0 hr 12 min 42 sec) 

Warmup complete CPU 0 instructions: 5000003 cycles: 2322491 (Simulation time: 0 hr 12 min 42 sec) 

Heartbeat CPU 0 instructions: 5000001 cycles: 1897209 heartbeat IPC: 2.65073 cumulative IPC: 2.63545 (Simulation time: 0 hr 12 min 44 sec) 

Warmup complete CPU 0 instructions: 5000001 cycles: 1897209 (Simulation time: 0 hr 12 min 44 sec) 

Heartbeat CPU 0 instructions: 5000001 cycles: 2571024 heartbeat IPC: 2.06963 cumulative IPC: 1.94475 (Simulation time: 0 hr 12 min 44 sec) 

Warmup complete CPU 0 instructions: 5000001 cycles: 2571024 (Simulation time: 0 hr 12 min 44 sec) 

Heartbeat CPU 0 instructions: 6000001 cycles: 4802736 heartbeat IPC: 0.30999 cumulative IPC: 0.309989 (Simulation time: 0 hr 12 min 47 sec) 
Heartbeat CPU 0 instructions: 4000000 cycles: 2443121 heartbeat IPC: 1.2817 cumulative IPC: 1.63725 (Simulation time: 0 hr 12 min 48 sec) 
Heartbeat CPU 0 instructions: 5000003 cycles: 1865235 heartbeat IPC: 2.95479 cumulative IPC: 2.68063 (Simulation time: 0 hr 12 min 57 sec) 

Warmup complete CPU 0 instructions: 5000003 cycles: 1865235 (Simulation time: 0 hr 12 min 57 sec) 

Heartbeat CPU 0 instructions: 6000002 cycles: 3664216 heartbeat IPC: 0.500616 cumulative IPC: 0.500616 (Simulation time: 0 hr 13 min 2 sec) 
Heartbeat CPU 0 instructions: 4000000 cycles: 1995176 heartbeat IPC: 1.95711 cumulative IPC: 2.00484 (Simulation time: 0 hr 13 min 3 sec) 
Heartbeat CPU 0 instructions: 4000000 cycles: 2372043 heartbeat IPC: 1.68724 cumulative IPC: 1.68631 (Simulation time: 0 hr 13 min 15 sec) 
Heartbeat CPU 0 instructions: 4000000 cycles: 2370621 heartbeat IPC: 1.68765 cumulative IPC: 1.68732 (Simulation time: 0 hr 13 min 17 sec) 
Heartbeat CPU 0 instructions: 5000002 cycles: 2893179 heartbeat IPC: 1.78879 cumulative IPC: 1.7282 (Simulation time: 0 hr 13 min 19 sec) 

Warmup complete CPU 0 instructions: 5000002 cycles: 2893179 (Simulation time: 0 hr 13 min 19 sec) 

Heartbeat CPU 0 instructions: 4000000 cycles: 2380257 heartbeat IPC: 1.68012 cumulative IPC: 1.68049 (Simulation time: 0 hr 13 min 19 sec) 
Heartbeat CPU 0 instructions: 4000000 cycles: 2133411 heartbeat IPC: 1.87654 cumulative IPC: 1.87493 (Simulation time: 0 hr 13 min 19 sec) 
Heartbeat CPU 0 instructions: 4000000 cycles: 2381490 heartbeat IPC: 1.60968 cumulative IPC: 1.67962 (Simulation time: 0 hr 13 min 24 sec) 
Heartbeat CPU 0 instructions: 4000000 cycles: 2502061 heartbeat IPC: 1.54432 cumulative IPC: 1.59868 (Simulation time: 0 hr 13 min 29 sec) 
Heartbeat CPU 0 instructions: 4000000 cycles: 1983552 heartbeat IPC: 2.02027 cumulative IPC: 2.01658 (Simulation time: 0 hr 13 min 33 sec) 
Heartbeat CPU 0 instructions: 5000001 cycles: 1916947 heartbeat IPC: 2.60828 cumulative IPC: 2.60831 (Simulation time: 0 hr 13 min 34 sec) 

Warmup complete CPU 0 instructions: 5000001 cycles: 1916947 (Simulation time: 0 hr 13 min 34 sec) 

Heartbeat CPU 0 instructions: 4000000 cycles: 2006778 heartbeat IPC: 2.0228 cumulative IPC: 1.99324 (Simulation time: 0 hr 13 min 36 sec) 
Heartbeat CPU 0 instructions: 5000001 cycles: 2022321 heartbeat IPC: 2.56228 cumulative IPC: 2.47241 (Simulation time: 0 hr 13 min 37 sec) 

Warmup complete CPU 0 instructions: 5000001 cycles: 2022321 (Simulation time: 0 hr 13 min 37 sec) 

Heartbeat CPU 0 instructions: 5000000 cycles: 1987094 heartbeat IPC: 2.82644 cumulative IPC: 2.51624 (Simulation time: 0 hr 13 min 36 sec) 

Warmup complete CPU 0 instructions: 5000004 cycles: 1987095 (Simulation time: 0 hr 13 min 36 sec) 

Heartbeat CPU 0 instructions: 4000000 cycles: 2530763 heartbeat IPC: 1.5817 cumulative IPC: 1.58055 (Simulation time: 0 hr 13 min 37 sec) 
Heartbeat CPU 0 instructions: 6000001 cycles: 3075679 heartbeat IPC: 2.11148 cumulative IPC: 2.11148 (Simulation time: 0 hr 13 min 39 sec) 
Heartbeat CPU 0 instructions: 4000000 cycles: 2319463 heartbeat IPC: 1.63723 cumulative IPC: 1.72454 (Simulation time: 0 hr 13 min 45 sec) 
Heartbeat CPU 0 instructions: 4000000 cycles: 3848630 heartbeat IPC: 1.03869 cumulative IPC: 1.03933 (Simulation time: 0 hr 13 min 46 sec) 
Heartbeat CPU 0 instructions: 5000001 cycles: 2104126 heartbeat IPC: 2.38979 cumulative IPC: 2.37628 (Simulation time: 0 hr 13 min 48 sec) 

Warmup complete CPU 0 instructions: 5000001 cycles: 2104126 (Simulation time: 0 hr 13 min 48 sec) 

Heartbeat CPU 0 instructions: 5000002 cycles: 1962096 heartbeat IPC: 2.55456 cumulative IPC: 2.5483 (Simulation time: 0 hr 13 min 49 sec) 

Warmup complete CPU 0 instructions: 5000002 cycles: 1962096 (Simulation time: 0 hr 13 min 49 sec) 

Heartbeat CPU 0 instructions: 5000000 cycles: 2159515 heartbeat IPC: 2.40797 cumulative IPC: 2.31533 (Simulation time: 0 hr 13 min 50 sec) 

Warmup complete CPU 0 instructions: 5000001 cycles: 2159516 (Simulation time: 0 hr 13 min 50 sec) 

Heartbeat CPU 0 instructions: 5000002 cycles: 2174890 heartbeat IPC: 2.37062 cumulative IPC: 2.29897 (Simulation time: 0 hr 13 min 53 sec) 

Warmup complete CPU 0 instructions: 5000002 cycles: 2174890 (Simulation time: 0 hr 13 min 53 sec) 

Heartbeat CPU 0 instructions: 5000001 cycles: 2071692 heartbeat IPC: 2.59734 cumulative IPC: 2.41349 (Simulation time: 0 hr 13 min 54 sec) 

Warmup complete CPU 0 instructions: 5000001 cycles: 2071692 (Simulation time: 0 hr 13 min 54 sec) 

Heartbeat CPU 0 instructions: 5000001 cycles: 2582394 heartbeat IPC: 1.93078 cumulative IPC: 1.93619 (Simulation time: 0 hr 13 min 54 sec) 

Warmup complete CPU 0 instructions: 5000001 cycles: 2582394 (Simulation time: 0 hr 13 min 54 sec) 

Heartbeat CPU 0 instructions: 5000000 cycles: 1803508 heartbeat IPC: 2.76175 cumulative IPC: 2.77237 (Simulation time: 0 hr 14 min 0 sec) 

Warmup complete CPU 0 instructions: 5000004 cycles: 1803509 (Simulation time: 0 hr 14 min 0 sec) 

Heartbeat CPU 0 instructions: 5000000 cycles: 2346967 heartbeat IPC: 2.21653 cumulative IPC: 2.13041 (Simulation time: 0 hr 14 min 5 sec) 

Warmup complete CPU 0 instructions: 5000003 cycles: 2346968 (Simulation time: 0 hr 14 min 5 sec) 

Heartbeat CPU 0 instructions: 6000003 cycles: 2440238 heartbeat IPC: 1.7239 cumulative IPC: 1.7239 (Simulation time: 0 hr 14 min 8 sec) 
Heartbeat CPU 0 instructions: 5000001 cycles: 2171592 heartbeat IPC: 2.22715 cumulative IPC: 2.30246 (Simulation time: 0 hr 14 min 19 sec) 

Warmup complete CPU 0 instructions: 5000001 cycles: 2171592 (Simulation time: 0 hr 14 min 20 sec) 

Heartbeat CPU 0 instructions: 5000000 cycles: 2865898 heartbeat IPC: 1.74199 cumulative IPC: 1.74465 (Simulation time: 0 hr 14 min 21 sec) 

Warmup complete CPU 0 instructions: 5000002 cycles: 2865899 (Simulation time: 0 hr 14 min 21 sec) 

Heartbeat CPU 0 instructions: 5000000 cycles: 2425411 heartbeat IPC: 2.01139 cumulative IPC: 2.06151 (Simulation time: 0 hr 14 min 29 sec) 

Warmup complete CPU 0 instructions: 5000004 cycles: 2425412 (Simulation time: 0 hr 14 min 29 sec) 

Heartbeat CPU 0 instructions: 4000000 cycles: 2624809 heartbeat IPC: 1.47517 cumulative IPC: 1.52392 (Simulation time: 0 hr 14 min 32 sec) 
Heartbeat CPU 0 instructions: 5000000 cycles: 1960940 heartbeat IPC: 2.53063 cumulative IPC: 2.5498 (Simulation time: 0 hr 14 min 43 sec) 

Warmup complete CPU 0 instructions: 5000004 cycles: 1960941 (Simulation time: 0 hr 14 min 43 sec) 

Heartbeat CPU 0 instructions: 5000000 cycles: 2038924 heartbeat IPC: 2.49161 cumulative IPC: 2.45227 (Simulation time: 0 hr 14 min 48 sec) 

Warmup complete CPU 0 instructions: 5000001 cycles: 2038926 (Simulation time: 0 hr 14 min 48 sec) 

Heartbeat CPU 0 instructions: 4000000 cycles: 2307197 heartbeat IPC: 1.73452 cumulative IPC: 1.73371 (Simulation time: 0 hr 14 min 53 sec) 
Heartbeat CPU 0 instructions: 4000000 cycles: 2452455 heartbeat IPC: 1.66435 cumulative IPC: 1.63102 (Simulation time: 0 hr 14 min 54 sec) 
Heartbeat CPU 0 instructions: 5000000 cycles: 2651055 heartbeat IPC: 1.88114 cumulative IPC: 1.88604 (Simulation time: 0 hr 15 min 6 sec) 

Warmup complete CPU 0 instructions: 5000001 cycles: 2651058 (Simulation time: 0 hr 15 min 6 sec) 

Heartbeat CPU 0 instructions: 5000003 cycles: 2548012 heartbeat IPC: 1.96457 cumulative IPC: 1.96232 (Simulation time: 0 hr 15 min 11 sec) 

Warmup complete CPU 0 instructions: 5000003 cycles: 2548012 (Simulation time: 0 hr 15 min 11 sec) 

Heartbeat CPU 0 instructions: 5000002 cycles: 2749347 heartbeat IPC: 1.81857 cumulative IPC: 1.81861 (Simulation time: 0 hr 15 min 10 sec) 

Warmup complete CPU 0 instructions: 5000002 cycles: 2749347 (Simulation time: 0 hr 15 min 10 sec) 

Heartbeat CPU 0 instructions: 6000000 cycles: 2905684 heartbeat IPC: 1.15159 cumulative IPC: 1.15159 (Simulation time: 0 hr 15 min 11 sec) 
Heartbeat CPU 0 instructions: 5000002 cycles: 2691200 heartbeat IPC: 2.09095 cumulative IPC: 1.85791 (Simulation time: 0 hr 15 min 13 sec) 

Warmup complete CPU 0 instructions: 5000002 cycles: 2691200 (Simulation time: 0 hr 15 min 13 sec) 

Heartbeat CPU 0 instructions: 5000003 cycles: 2884306 heartbeat IPC: 1.72934 cumulative IPC: 1.73352 (Simulation time: 0 hr 15 min 17 sec) 

Warmup complete CPU 0 instructions: 5000003 cycles: 2884306 (Simulation time: 0 hr 15 min 17 sec) 

Heartbeat CPU 0 instructions: 7000002 cycles: 8740163 heartbeat IPC: 0.279754 cumulative IPC: 0.279811 (Simulation time: 0 hr 15 min 25 sec) 
Heartbeat CPU 0 instructions: 6000000 cycles: 3438294 heartbeat IPC: 1.15304 cumulative IPC: 1.15304 (Simulation time: 0 hr 15 min 27 sec) 
Heartbeat CPU 0 instructions: 6000001 cycles: 3243967 heartbeat IPC: 1.08521 cumulative IPC: 1.08521 (Simulation time: 0 hr 15 min 28 sec) 
Heartbeat CPU 0 instructions: 5000001 cycles: 3085110 heartbeat IPC: 1.70135 cumulative IPC: 1.62069 (Simulation time: 0 hr 15 min 32 sec) 

Warmup complete CPU 0 instructions: 5000001 cycles: 3085110 (Simulation time: 0 hr 15 min 32 sec) 

Heartbeat CPU 0 instructions: 5000001 cycles: 3158592 heartbeat IPC: 1.58794 cumulative IPC: 1.58298 (Simulation time: 0 hr 15 min 42 sec) 

Warmup complete CPU 0 instructions: 5000001 cycles: 3158592 (Simulation time: 0 hr 15 min 42 sec) 

Heartbeat CPU 0 instructions: 5000000 cycles: 2995748 heartbeat IPC: 1.668 cumulative IPC: 1.66903 (Simulation time: 0 hr 15 min 43 sec) 

Warmup complete CPU 0 instructions: 5000001 cycles: 2995749 (Simulation time: 0 hr 15 min 43 sec) 

Heartbeat CPU 0 instructions: 7000001 cycles: 7987048 heartbeat IPC: 0.31404 cumulative IPC: 0.312001 (Simulation time: 0 hr 15 min 46 sec) 
Heartbeat CPU 0 instructions: 6000002 cycles: 3559751 heartbeat IPC: 0.601489 cumulative IPC: 0.601489 (Simulation time: 0 hr 15 min 55 sec) 
Heartbeat CPU 0 instructions: 7000001 cycles: 5832948 heartbeat IPC: 0.461098 cumulative IPC: 0.480046 (Simulation time: 0 hr 16 min 0 sec) 
Heartbeat CPU 0 instructions: 7000001 cycles: 3552712 heartbeat IPC: 2.09629 cumulative IPC: 2.10386 (Simulation time: 0 hr 16 min 3 sec) 
Heartbeat CPU 0 instructions: 5000000 cycles: 3123523 heartbeat IPC: 1.46972 cumulative IPC: 1.60076 (Simulation time: 0 hr 16 min 6 sec) 

Warmup complete CPU 0 instructions: 5000004 cycles: 3123524 (Simulation time: 0 hr 16 min 6 sec) 

Heartbeat CPU 0 instructions: 6000002 cycles: 4097168 heartbeat IPC: 0.448042 cumulative IPC: 0.448042 (Simulation time: 0 hr 16 min 11 sec) 
Heartbeat CPU 0 instructions: 6000000 cycles: 5768010 heartbeat IPC: 0.347846 cumulative IPC: 0.347846 (Simulation time: 0 hr 16 min 15 sec) 
Heartbeat CPU 0 instructions: 5000000 cycles: 2477885 heartbeat IPC: 2.07164 cumulative IPC: 2.01785 (Simulation time: 0 hr 16 min 22 sec) 

Warmup complete CPU 0 instructions: 5000004 cycles: 2477886 (Simulation time: 0 hr 16 min 22 sec) 

Heartbeat CPU 0 instructions: 5000000 cycles: 2964991 heartbeat IPC: 1.68649 cumulative IPC: 1.68635 (Simulation time: 0 hr 16 min 30 sec) 

Warmup complete CPU 0 instructions: 5000004 cycles: 2964992 (Simulation time: 0 hr 16 min 30 sec) 

Heartbeat CPU 0 instructions: 6000002 cycles: 3131508 heartbeat IPC: 0.973349 cumulative IPC: 0.973349 (Simulation time: 0 hr 16 min 30 sec) 
Heartbeat CPU 0 instructions: 6000000 cycles: 3557754 heartbeat IPC: 0.723135 cumulative IPC: 0.723135 (Simulation time: 0 hr 16 min 31 sec) 
Heartbeat CPU 0 instructions: 5000001 cycles: 2975033 heartbeat IPC: 1.68131 cumulative IPC: 1.68065 (Simulation time: 0 hr 16 min 31 sec) 

Warmup complete CPU 0 instructions: 5000001 cycles: 2975033 (Simulation time: 0 hr 16 min 31 sec) 

Heartbeat CPU 0 instructions: 5000002 cycles: 2957066 heartbeat IPC: 1.73739 cumulative IPC: 1.69087 (Simulation time: 0 hr 16 min 36 sec) 

Warmup complete CPU 0 instructions: 5000002 cycles: 2957066 (Simulation time: 0 hr 16 min 36 sec) 

Heartbeat CPU 0 instructions: 5000000 cycles: 2963700 heartbeat IPC: 1.68612 cumulative IPC: 1.68708 (Simulation time: 0 hr 16 min 37 sec) 

Warmup complete CPU 0 instructions: 5000004 cycles: 2963701 (Simulation time: 0 hr 16 min 37 sec) 

Heartbeat CPU 0 instructions: 6000000 cycles: 4621569 heartbeat IPC: 0.354854 cumulative IPC: 0.354853 (Simulation time: 0 hr 16 min 39 sec) 
Heartbeat CPU 0 instructions: 6000001 cycles: 2984440 heartbeat IPC: 1.5687 cumulative IPC: 1.56869 (Simulation time: 0 hr 16 min 40 sec) 
Heartbeat CPU 0 instructions: 5000001 cycles: 2666043 heartbeat IPC: 1.87747 cumulative IPC: 1.87544 (Simulation time: 0 hr 16 min 40 sec) 

Warmup complete CPU 0 instructions: 5000001 cycles: 2666043 (Simulation time: 0 hr 16 min 40 sec) 

Heartbeat CPU 0 instructions: 5000002 cycles: 3062652 heartbeat IPC: 1.78384 cumulative IPC: 1.63257 (Simulation time: 0 hr 16 min 43 sec) 

Warmup complete CPU 0 instructions: 5000002 cycles: 3062652 (Simulation time: 0 hr 16 min 43 sec) 

Heartbeat CPU 0 instructions: 6000000 cycles: 3847523 heartbeat IPC: 0.51798 cumulative IPC: 0.51798 (Simulation time: 0 hr 16 min 46 sec) 
Heartbeat CPU 0 instructions: 5000002 cycles: 2477162 heartbeat IPC: 2.02589 cumulative IPC: 2.01844 (Simulation time: 0 hr 16 min 47 sec) 

Warmup complete CPU 0 instructions: 5000002 cycles: 2477162 (Simulation time: 0 hr 16 min 47 sec) 

Heartbeat CPU 0 instructions: 6000000 cycles: 3787190 heartbeat IPC: 0.582921 cumulative IPC: 0.582921 (Simulation time: 0 hr 16 min 48 sec) 
Heartbeat CPU 0 instructions: 7000000 cycles: 2988311 heartbeat IPC: 1.82457 cumulative IPC: 1.77281 (Simulation time: 0 hr 16 min 50 sec) 
Heartbeat CPU 0 instructions: 5000003 cycles: 3163138 heartbeat IPC: 1.58134 cumulative IPC: 1.58071 (Simulation time: 0 hr 16 min 54 sec) 

Warmup complete CPU 0 instructions: 5000003 cycles: 3163138 (Simulation time: 0 hr 16 min 54 sec) 

Heartbeat CPU 0 instructions: 6000000 cycles: 3972690 heartbeat IPC: 0.512723 cumulative IPC: 0.512723 (Simulation time: 0 hr 16 min 57 sec) 
Heartbeat CPU 0 instructions: 5000002 cycles: 2497677 heartbeat IPC: 2.03708 cumulative IPC: 2.00186 (Simulation time: 0 hr 17 min 2 sec) 

Warmup complete CPU 0 instructions: 5000002 cycles: 2497677 (Simulation time: 0 hr 17 min 2 sec) 

Heartbeat CPU 0 instructions: 5000002 cycles: 4738254 heartbeat IPC: 1.12407 cumulative IPC: 1.05524 (Simulation time: 0 hr 17 min 2 sec) 

Warmup complete CPU 0 instructions: 5000002 cycles: 4738254 (Simulation time: 0 hr 17 min 2 sec) 

Heartbeat CPU 0 instructions: 6000001 cycles: 3899925 heartbeat IPC: 0.67819 cumulative IPC: 0.678188 (Simulation time: 0 hr 17 min 5 sec) 
Heartbeat CPU 0 instructions: 6000002 cycles: 3778737 heartbeat IPC: 0.550466 cumulative IPC: 0.550466 (Simulation time: 0 hr 17 min 11 sec) 
Heartbeat CPU 0 instructions: 6000000 cycles: 4593340 heartbeat IPC: 0.383694 cumulative IPC: 0.383692 (Simulation time: 0 hr 17 min 11 sec) 
Heartbeat CPU 0 instructions: 5000000 cycles: 3014423 heartbeat IPC: 1.43893 cumulative IPC: 1.65869 (Simulation time: 0 hr 17 min 24 sec) 

Warmup complete CPU 0 instructions: 5000004 cycles: 3014425 (Simulation time: 0 hr 17 min 24 sec) 

Heartbeat CPU 0 instructions: 6000003 cycles: 4216266 heartbeat IPC: 0.612044 cumulative IPC: 0.612044 (Simulation time: 0 hr 17 min 30 sec) 
Heartbeat CPU 0 instructions: 6000002 cycles: 5717741 heartbeat IPC: 0.350651 cumulative IPC: 0.350651 (Simulation time: 0 hr 17 min 34 sec) 
Heartbeat CPU 0 instructions: 6000000 cycles: 3507343 heartbeat IPC: 0.741934 cumulative IPC: 0.741934 (Simulation time: 0 hr 17 min 35 sec) 
Heartbeat CPU 0 instructions: 5000002 cycles: 3302719 heartbeat IPC: 1.47513 cumulative IPC: 1.5139 (Simulation time: 0 hr 17 min 55 sec) 

Warmup complete CPU 0 instructions: 5000002 cycles: 3302719 (Simulation time: 0 hr 17 min 55 sec) 

Heartbeat CPU 0 instructions: 7000002 cycles: 3778956 heartbeat IPC: 1.14512 cumulative IPC: 1.14835 (Simulation time: 0 hr 18 min 0 sec) 
Heartbeat CPU 0 instructions: 6000000 cycles: 4833477 heartbeat IPC: 0.357839 cumulative IPC: 0.357839 (Simulation time: 0 hr 18 min 6 sec) 
Heartbeat CPU 0 instructions: 7000000 cycles: 4389880 heartbeat IPC: 1.05088 cumulative IPC: 1.09959 (Simulation time: 0 hr 18 min 16 sec) 
Heartbeat CPU 0 instructions: 8000000 cycles: 12187192 heartbeat IPC: 0.290104 cumulative IPC: 0.28316 (Simulation time: 0 hr 18 min 21 sec) 
Heartbeat CPU 0 instructions: 7000001 cycles: 4166477 heartbeat IPC: 1.084 cumulative IPC: 1.08461 (Simulation time: 0 hr 18 min 21 sec) 
Heartbeat CPU 0 instructions: 8000000 cycles: 4026025 heartbeat IPC: 2.11276 cumulative IPC: 2.10682 (Simulation time: 0 hr 18 min 22 sec) 
Heartbeat CPU 0 instructions: 5000000 cycles: 2884156 heartbeat IPC: 1.73323 cumulative IPC: 1.73361 (Simulation time: 0 hr 18 min 23 sec) 

Warmup complete CPU 0 instructions: 5000004 cycles: 2884157 (Simulation time: 0 hr 18 min 23 sec) 

Heartbeat CPU 0 instructions: 6000002 cycles: 3792356 heartbeat IPC: 0.546027 cumulative IPC: 0.546025 (Simulation time: 0 hr 18 min 24 sec) 
Heartbeat CPU 0 instructions: 6000000 cycles: 6756100 heartbeat IPC: 0.218126 cumulative IPC: 0.218126 (Simulation time: 0 hr 18 min 26 sec) 
Heartbeat CPU 0 instructions: 5000000 cycles: 3058482 heartbeat IPC: 1.65009 cumulative IPC: 1.6348 (Simulation time: 0 hr 18 min 29 sec) 

Warmup complete CPU 0 instructions: 5000002 cycles: 3058483 (Simulation time: 0 hr 18 min 29 sec) 

Heartbeat CPU 0 instructions: 6000000 cycles: 4821906 heartbeat IPC: 0.460649 cumulative IPC: 0.460649 (Simulation time: 0 hr 18 min 34 sec) 
Heartbeat CPU 0 instructions: 6000001 cycles: 4693094 heartbeat IPC: 0.51447 cumulative IPC: 0.51447 (Simulation time: 0 hr 18 min 34 sec) 
Heartbeat CPU 0 instructions: 6000000 cycles: 3914634 heartbeat IPC: 0.731729 cumulative IPC: 0.731729 (Simulation time: 0 hr 18 min 42 sec) 
Heartbeat CPU 0 instructions: 8000000 cycles: 11186317 heartbeat IPC: 0.312571 cumulative IPC: 0.312191 (Simulation time: 0 hr 18 min 45 sec) 
Heartbeat CPU 0 instructions: 7000000 cycles: 5074512 heartbeat IPC: 0.660169 cumulative IPC: 0.629464 (Simulation time: 0 hr 18 min 48 sec) 
Heartbeat CPU 0 instructions: 8000000 cycles: 8115146 heartbeat IPC: 0.438174 cumulative IPC: 0.465227 (Simulation time: 0 hr 18 min 54 sec) 
Heartbeat CPU 0 instructions: 7000002 cycles: 4763587 heartbeat IPC: 0.829304 cumulative IPC: 0.772589 (Simulation time: 0 hr 19 min 2 sec) 
Heartbeat CPU 0 instructions: 6000003 cycles: 5728197 heartbeat IPC: 0.378346 cumulative IPC: 0.378346 (Simulation time: 0 hr 19 min 5 sec) 
Heartbeat CPU 0 instructions: 7000001 cycles: 5706476 heartbeat IPC: 0.621384 cumulative IPC: 0.520665 (Simulation time: 0 hr 19 min 7 sec) 
Heartbeat CPU 0 instructions: 7000000 cycles: 3542426 heartbeat IPC: 1.79216 cumulative IPC: 1.673 (Simulation time: 0 hr 19 min 13 sec) 
Heartbeat CPU 0 instructions: 7000003 cycles: 4155251 heartbeat IPC: 0.976809 cumulative IPC: 0.975076 (Simulation time: 0 hr 19 min 13 sec) 
Heartbeat CPU 0 instructions: 6000001 cycles: 5872632 heartbeat IPC: 0.368454 cumulative IPC: 0.368454 (Simulation time: 0 hr 19 min 12 sec) 
Heartbeat CPU 0 instructions: 7000000 cycles: 7806527 heartbeat IPC: 0.313976 cumulative IPC: 0.333165 (Simulation time: 0 hr 19 min 16 sec) 
Heartbeat CPU 0 instructions: 7000000 cycles: 9475308 heartbeat IPC: 0.269738 cumulative IPC: 0.303853 (Simulation time: 0 hr 19 min 25 sec) 
Heartbeat CPU 0 instructions: 6000003 cycles: 5270109 heartbeat IPC: 0.419146 cumulative IPC: 0.419146 (Simulation time: 0 hr 19 min 25 sec) 
Heartbeat CPU 0 instructions: 6000003 cycles: 7235276 heartbeat IPC: 0.220067 cumulative IPC: 0.220067 (Simulation time: 0 hr 19 min 28 sec) 
Heartbeat CPU 0 instructions: 6000001 cycles: 4812623 heartbeat IPC: 0.550396 cumulative IPC: 0.550396 (Simulation time: 0 hr 19 min 27 sec) 
Heartbeat CPU 0 instructions: 6000003 cycles: 5432269 heartbeat IPC: 0.433137 cumulative IPC: 0.433135 (Simulation time: 0 hr 19 min 31 sec) 
Heartbeat CPU 0 instructions: 8000000 cycles: 3535767 heartbeat IPC: 1.82663 cumulative IPC: 1.79039 (Simulation time: 0 hr 19 min 34 sec) 
Heartbeat CPU 0 instructions: 7000001 cycles: 5480943 heartbeat IPC: 0.632504 cumulative IPC: 0.65455 (Simulation time: 0 hr 19 min 46 sec) 
Heartbeat CPU 0 instructions: 7000002 cycles: 5791407 heartbeat IPC: 0.514435 cumulative IPC: 0.516201 (Simulation time: 0 hr 19 min 58 sec) 
Heartbeat CPU 0 instructions: 6000001 cycles: 4989627 heartbeat IPC: 0.493916 cumulative IPC: 0.493915 (Simulation time: 0 hr 20 min 9 sec) 
Heartbeat CPU 0 instructions: 6000002 cycles: 5096258 heartbeat IPC: 0.471426 cumulative IPC: 0.471426 (Simulation time: 0 hr 20 min 16 sec) 
Heartbeat CPU 0 instructions: 6000002 cycles: 5078266 heartbeat IPC: 0.472911 cumulative IPC: 0.47291 (Simulation time: 0 hr 20 min 28 sec) 
Heartbeat CPU 0 instructions: 6000001 cycles: 4325088 heartbeat IPC: 0.602756 cumulative IPC: 0.602756 (Simulation time: 0 hr 20 min 30 sec) 
Heartbeat CPU 0 instructions: 6000000 cycles: 6129014 heartbeat IPC: 0.71903 cumulative IPC: 0.71903 (Simulation time: 0 hr 20 min 33 sec) 
Heartbeat CPU 0 instructions: 7000001 cycles: 6126258 heartbeat IPC: 0.464346 cumulative IPC: 0.487337 (Simulation time: 0 hr 20 min 38 sec) 
Heartbeat CPU 0 instructions: 6000000 cycles: 5148565 heartbeat IPC: 0.479405 cumulative IPC: 0.479405 (Simulation time: 0 hr 20 min 40 sec) 
Heartbeat CPU 0 instructions: 7000003 cycles: 5700314 heartbeat IPC: 0.520406 cumulative IPC: 0.535015 (Simulation time: 0 hr 20 min 43 sec) 
Heartbeat CPU 0 instructions: 9000001 cycles: 4502728 heartbeat IPC: 2.09774 cumulative IPC: 2.10454 (Simulation time: 0 hr 20 min 47 sec) 
Heartbeat CPU 0 instructions: 7000000 cycles: 7140145 heartbeat IPC: 0.392649 cumulative IPC: 0.388119 (Simulation time: 0 hr 20 min 46 sec) 
Heartbeat CPU 0 instructions: 8000000 cycles: 4648785 heartbeat IPC: 1.14965 cumulative IPC: 1.14878 (Simulation time: 0 hr 20 min 48 sec) 
Heartbeat CPU 0 instructions: 7000001 cycles: 8430487 heartbeat IPC: 0.215364 cumulative IPC: 0.314525 (Simulation time: 0 hr 20 min 50 sec) 
Heartbeat CPU 0 instructions: 7000000 cycles: 8721946 heartbeat IPC: 0.332866 cumulative IPC: 0.341527 (Simulation time: 0 hr 20 min 55 sec) 
Heartbeat CPU 0 instructions: 7000002 cycles: 7461262 heartbeat IPC: 0.380549 cumulative IPC: 0.368845 (Simulation time: 0 hr 21 min 0 sec) 
Heartbeat CPU 0 instructions: 6000003 cycles: 9680810 heartbeat IPC: 0.138833 cumulative IPC: 0.138832 (Simulation time: 0 hr 21 min 0 sec) 
Heartbeat CPU 0 instructions: 7000000 cycles: 5841926 heartbeat IPC: 0.615133 cumulative IPC: 0.613585 (Simulation time: 0 hr 21 min 3 sec) 
Heartbeat CPU 0 instructions: 6000002 cycles: 4806753 heartbeat IPC: 0.557934 cumulative IPC: 0.557932 (Simulation time: 0 hr 21 min 5 sec) 
Heartbeat CPU 0 instructions: 7000000 cycles: 8417332 heartbeat IPC: 0.601963 cumulative IPC: 0.320218 (Simulation time: 0 hr 21 min 6 sec) 
Heartbeat CPU 0 instructions: 8000000 cycles: 5410792 heartbeat IPC: 0.979516 cumulative IPC: 1.05642 (Simulation time: 0 hr 21 min 7 sec) 
Heartbeat CPU 0 instructions: 6000002 cycles: 6267788 heartbeat IPC: 0.322097 cumulative IPC: 0.322097 (Simulation time: 0 hr 21 min 9 sec) 
Heartbeat CPU 0 instructions: 8000000 cycles: 5089105 heartbeat IPC: 1.08386 cumulative IPC: 1.08436 (Simulation time: 0 hr 21 min 16 sec) 
Heartbeat CPU 0 instructions: 7000000 cycles: 4855253 heartbeat IPC: 0.741889 cumulative IPC: 0.741912 (Simulation time: 0 hr 21 min 22 sec) 
Heartbeat CPU 0 instructions: 6000003 cycles: 7596737 heartbeat IPC: 0.215533 cumulative IPC: 0.215533 (Simulation time: 0 hr 21 min 37 sec) 
Heartbeat CPU 0 instructions: 8000000 cycles: 5870706 heartbeat IPC: 0.903243 cumulative IPC: 0.811728 (Simulation time: 0 hr 21 min 40 sec) 
Heartbeat CPU 0 instructions: 6000001 cycles: 14561903 heartbeat IPC: 0.0827489 cumulative IPC: 0.0827489 (Simulation time: 0 hr 21 min 42 sec) 
Heartbeat CPU 0 instructions: 9000002 cycles: 14227377 heartbeat IPC: 0.328833 cumulative IPC: 0.316191 (Simulation time: 0 hr 21 min 41 sec) 
Heartbeat CPU 0 instructions: 9000000 cycles: 14698076 heartbeat IPC: 0.398266 cumulative IPC: 0.305213 (Simulation time: 0 hr 21 min 46 sec) 
Heartbeat CPU 0 instructions: 8000000 cycles: 4095056 heartbeat IPC: 1.80953 cumulative IPC: 1.71616 (Simulation time: 0 hr 21 min 46 sec) 
Heartbeat CPU 0 instructions: 9000001 cycles: 10389066 heartbeat IPC: 0.43977 cumulative IPC: 0.45859 (Simulation time: 0 hr 21 min 48 sec) 
Heartbeat CPU 0 instructions: 8000000 cycles: 5218976 heartbeat IPC: 0.94009 cumulative IPC: 0.963128 (Simulation time: 0 hr 21 min 51 sec) 
Heartbeat CPU 0 instructions: 7000001 cycles: 7002288 heartbeat IPC: 0.458636 cumulative IPC: 0.45964 (Simulation time: 0 hr 21 min 59 sec) 
Heartbeat CPU 0 instructions: 8000000 cycles: 6366781 heartbeat IPC: 0.773833 cumulative IPC: 0.671205 (Simulation time: 0 hr 21 min 59 sec) 
Heartbeat CPU 0 instructions: 8000000 cycles: 10521630 heartbeat IPC: 0.955729 cumulative IPC: 0.393264 (Simulation time: 0 hr 22 min 0 sec) 
Heartbeat CPU 0 instructions: 8000000 cycles: 10659441 heartbeat IPC: 0.350519 cumulative IPC: 0.338756 (Simulation time: 0 hr 22 min 0 sec) 
Heartbeat CPU 0 instructions: 7000000 cycles: 6636132 heartbeat IPC: 0.514657 cumulative IPC: 0.514564 (Simulation time: 0 hr 22 min 2 sec) 
Heartbeat CPU 0 instructions: 8000000 cycles: 7090101 heartbeat IPC: 0.722738 cumulative IPC: 0.574177 (Simulation time: 0 hr 22 min 10 sec) 
Heartbeat CPU 0 instructions: 7000001 cycles: 5305651 heartbeat IPC: 0.718899 cumulative IPC: 0.725257 (Simulation time: 0 hr 22 min 14 sec) 
Heartbeat CPU 0 instructions: 6000000 cycles: 13618070 heartbeat IPC: 0.0899247 cumulative IPC: 0.0899247 (Simulation time: 0 hr 22 min 15 sec) 
Heartbeat CPU 0 instructions: 8000000 cycles: 6703984 heartbeat IPC: 0.817633 cumulative IPC: 0.701168 (Simulation time: 0 hr 22 min 19 sec) 
Heartbeat CPU 0 instructions: 7000000 cycles: 5636187 heartbeat IPC: 0.542348 cumulative IPC: 0.54418 (Simulation time: 0 hr 22 min 20 sec) 
Heartbeat CPU 0 instructions: 9000000 cycles: 4082145 heartbeat IPC: 1.83023 cumulative IPC: 1.80019 (Simulation time: 0 hr 22 min 21 sec) 
Heartbeat CPU 0 instructions: 6000001 cycles: 13099559 heartbeat IPC: 0.102074 cumulative IPC: 0.102074 (Simulation time: 0 hr 22 min 34 sec) 
Heartbeat CPU 0 instructions: 7000000 cycles: 8384310 heartbeat IPC: 0.376489 cumulative IPC: 0.377415 (Simulation time: 0 hr 22 min 39 sec) 
Heartbeat CPU 0 instructions: 7000002 cycles: 8921062 heartbeat IPC: 0.328038 cumulative IPC: 0.347074 (Simulation time: 0 hr 22 min 38 sec) 
Heartbeat CPU 0 instructions: 6000000 cycles: 5131276 heartbeat IPC: 0.482441 cumulative IPC: 0.48244 (Simulation time: 0 hr 22 min 59 sec) 
Heartbeat CPU 0 instructions: 7000002 cycles: 7735012 heartbeat IPC: 0.434264 cumulative IPC: 0.433699 (Simulation time: 0 hr 23 min 0 sec) 
Heartbeat CPU 0 instructions: 8000000 cycles: 7730693 heartbeat IPC: 0.515653 cumulative IPC: 0.516018 (Simulation time: 0 hr 23 min 6 sec) 
Heartbeat CPU 0 instructions: 6000000 cycles: 5475042 heartbeat IPC: 0.385968 cumulative IPC: 0.385967 (Simulation time: 0 hr 23 min 7 sec) 
Heartbeat CPU 0 instructions: 7000001 cycles: 6602001 heartbeat IPC: 0.558853 cumulative IPC: 0.554592 (Simulation time: 0 hr 23 min 10 sec) 
Heartbeat CPU 0 instructions: 10000001 cycles: 4976169 heartbeat IPC: 2.1122 cumulative IPC: 2.10607 (Simulation time: 0 hr 23 min 15 sec) 
Heartbeat CPU 0 instructions: 7000000 cycles: 7691774 heartbeat IPC: 0.412938 cumulative IPC: 0.416019 (Simulation time: 0 hr 23 min 40 sec) 
Heartbeat CPU 0 instructions: 9000000 cycles: 5522697 heartbeat IPC: 1.14428 cumulative IPC: 1.14765 (Simulation time: 0 hr 23 min 42 sec) 
Heartbeat CPU 0 instructions: 7000000 cycles: 7086124 heartbeat IPC: 0.476986 cumulative IPC: 0.485303 (Simulation time: 0 hr 23 min 47 sec) 
Heartbeat CPU 0 instructions: 7000002 cycles: 11831369 heartbeat IPC: 0.217576 cumulative IPC: 0.218814 (Simulation time: 0 hr 23 min 48 sec) 
Heartbeat CPU 0 instructions: 8000000 cycles: 9023790 heartbeat IPC: 0.530886 cumulative IPC: 0.426336 (Simulation time: 0 hr 23 min 53 sec) 
Heartbeat CPU 0 instructions: 8000000 cycles: 7872166 heartbeat IPC: 0.572767 cumulative IPC: 0.512834 (Simulation time: 0 hr 23 min 55 sec) 
Heartbeat CPU 0 instructions: 7000000 cycles: 7226538 heartbeat IPC: 0.469421 cumulative IPC: 0.470421 (Simulation time: 0 hr 23 min 56 sec) 
Heartbeat CPU 0 instructions: 9000000 cycles: 6354386 heartbeat IPC: 1.05978 cumulative IPC: 1.05726 (Simulation time: 0 hr 24 min 0 sec) 
Heartbeat CPU 0 instructions: 7000000 cycles: 7494187 heartbeat IPC: 0.732508 cumulative IPC: 0.725706 (Simulation time: 0 hr 24 min 2 sec) 
Heartbeat CPU 0 instructions: 8000000 cycles: 11052308 heartbeat IPC: 0.37951 cumulative IPC: 0.33781 (Simulation time: 0 hr 24 min 5 sec) 
Heartbeat CPU 0 instructions: 8000000 cycles: 7490849 heartbeat IPC: 0.558491 cumulative IPC: 0.542617 (Simulation time: 0 hr 24 min 11 sec) 
Heartbeat CPU 0 instructions: 9000001 cycles: 6031216 heartbeat IPC: 1.06145 cumulative IPC: 1.07854 (Simulation time: 0 hr 24 min 11 sec) 
Heartbeat CPU 0 instructions: 9000000 cycles: 7182682 heartbeat IPC: 0.762209 cumulative IPC: 0.798755 (Simulation time: 0 hr 24 min 14 sec) 
Heartbeat CPU 0 instructions: 9000000 cycles: 4658335 heartbeat IPC: 1.77532 cumulative IPC: 1.73058 (Simulation time: 0 hr 24 min 15 sec) 
Heartbeat CPU 0 instructions: 8000000 cycles: 12155266 heartbeat IPC: 0.291263 cumulative IPC: 0.32295 (Simulation time: 0 hr 24 min 15 sec) 
Heartbeat CPU 0 instructions: 7000000 cycles: 5976322 heartbeat IPC: 0.605607 cumulative IPC: 0.604178 (Simulation time: 0 hr 24 min 17 sec) 
Heartbeat CPU 0 instructions: 7000001 cycles: 7182668 heartbeat IPC: 0.475194 cumulative IPC: 0.474049 (Simulation time: 0 hr 24 min 17 sec) 
Heartbeat CPU 0 instructions: 9000001 cycles: 11569188 heartbeat IPC: 0.954602 cumulative IPC: 0.461041 (Simulation time: 0 hr 24 min 22 sec) 
Heartbeat CPU 0 instructions: 9000000 cycles: 6244656 heartbeat IPC: 0.974963 cumulative IPC: 0.96606 (Simulation time: 0 hr 24 min 30 sec) 
Heartbeat CPU 0 instructions: 7000002 cycles: 7128473 heartbeat IPC: 0.505075 cumulative IPC: 0.491906 (Simulation time: 0 hr 24 min 35 sec) 
Heartbeat CPU 0 instructions: 10000000 cycles: 12684931 heartbeat IPC: 0.435565 cumulative IPC: 0.453792 (Simulation time: 0 hr 24 min 36 sec) 
Heartbeat CPU 0 instructions: 8000000 cycles: 7464681 heartbeat IPC: 0.616236 cumulative IPC: 0.614466 (Simulation time: 0 hr 24 min 39 sec) 
Heartbeat CPU 0 instructions: 10000003 cycles: 17188995 heartbeat IPC: 0.337654 cumulative IPC: 0.320263 (Simulation time: 0 hr 24 min 41 sec) 
Heartbeat CPU 0 instructions: 9000000 cycles: 13527536 heartbeat IPC: 0.348663 cumulative IPC: 0.341179 (Simulation time: 0 hr 24 min 44 sec) 
Heartbeat CPU 0 instructions: 10000002 cycles: 16728619 heartbeat IPC: 0.49248 cumulative IPC: 0.330336 (Simulation time: 0 hr 24 min 47 sec) 
Heartbeat CPU 0 instructions: 9000003 cycles: 8001711 heartbeat IPC: 0.77058 cumulative IPC: 0.717321 (Simulation time: 0 hr 24 min 50 sec) 
Heartbeat CPU 0 instructions: 9000001 cycles: 7665611 heartbeat IPC: 0.769924 cumulative IPC: 0.693433 (Simulation time: 0 hr 24 min 53 sec) 
Heartbeat CPU 0 instructions: 7000001 cycles: 6625881 heartbeat IPC: 0.549713 cumulative IPC: 0.553792 (Simulation time: 0 hr 24 min 54 sec) 
Heartbeat CPU 0 instructions: 8000000 cycles: 6267515 heartbeat IPC: 0.708084 cumulative IPC: 0.730282 (Simulation time: 0 hr 25 min 8 sec) 
Heartbeat CPU 0 instructions: 8000000 cycles: 12669521 heartbeat IPC: 0.235903 cumulative IPC: 0.283077 (Simulation time: 0 hr 25 min 8 sec) 
Heartbeat CPU 0 instructions: 8000000 cycles: 11413185 heartbeat IPC: 0.253041 cumulative IPC: 0.320025 (Simulation time: 0 hr 25 min 12 sec) 
Heartbeat CPU 0 instructions: 10000002 cycles: 5021494 heartbeat IPC: 1.06457 cumulative IPC: 1.58161 (Simulation time: 0 hr 25 min 13 sec) 
Heartbeat CPU 0 instructions: 8000000 cycles: 9153369 heartbeat IPC: 0.464882 cumulative IPC: 0.461374 (Simulation time: 0 hr 25 min 15 sec) 
Heartbeat CPU 0 instructions: 9000003 cycles: 8775621 heartbeat IPC: 0.593291 cumulative IPC: 0.578839 (Simulation time: 0 hr 25 min 16 sec) 
Heartbeat CPU 0 instructions: 7000000 cycles: 9320121 heartbeat IPC: 0.327618 cumulative IPC: 0.324834 (Simulation time: 0 hr 25 min 22 sec) 
Heartbeat CPU 0 instructions: 8000000 cycles: 8582150 heartbeat IPC: 0.51387 cumulative IPC: 0.514332 (Simulation time: 0 hr 25 min 26 sec) 
Heartbeat CPU 0 instructions: 11000002 cycles: 5453066 heartbeat IPC: 2.09689 cumulative IPC: 2.10453 (Simulation time: 0 hr 25 min 43 sec) 
Heartbeat CPU 0 instructions: 8000000 cycles: 6688502 heartbeat IPC: 0.723143 cumulative IPC: 0.724551 (Simulation time: 0 hr 25 min 49 sec) 
Heartbeat CPU 0 instructions: 7000003 cycles: 12488963 heartbeat IPC: 0.204406 cumulative IPC: 0.209822 (Simulation time: 0 hr 26 min 0 sec) 
Heartbeat CPU 0 instructions: 8000000 cycles: 7431687 heartbeat IPC: 0.556948 cumulative IPC: 0.548371 (Simulation time: 0 hr 26 min 3 sec) 
Heartbeat CPU 0 instructions: 8000000 cycles: 11461672 heartbeat IPC: 0.393605 cumulative IPC: 0.361312 (Simulation time: 0 hr 26 min 10 sec) 
Heartbeat CPU 0 instructions: 8000000 cycles: 11040806 heartbeat IPC: 0.376436 cumulative IPC: 0.377088 (Simulation time: 0 hr 26 min 11 sec) 
Heartbeat CPU 0 instructions: 9000003 cycles: 9666524 heartbeat IPC: 0.516576 cumulative IPC: 0.516157 (Simulation time: 0 hr 26 min 15 sec) 
Heartbeat CPU 0 instructions: 7000000 cycles: 26691553 heartbeat IPC: 0.0824425 cumulative IPC: 0.0825954 (Simulation time: 0 hr 26 min 27 sec) 
Heartbeat CPU 0 instructions: 10000002 cycles: 6395682 heartbeat IPC: 1.1455 cumulative IPC: 1.14722 (Simulation time: 0 hr 26 min 31 sec) 
Heartbeat CPU 0 instructions: 8000000 cycles: 10017651 heartbeat IPC: 0.438089 cumulative IPC: 0.435152 (Simulation time: 0 hr 26 min 31 sec) 
Heartbeat CPU 0 instructions: 10000001 cycles: 5218925 heartbeat IPC: 1.78384 cumulative IPC: 1.74097 (Simulation time: 0 hr 26 min 39 sec) 
Heartbeat CPU 0 instructions: 10000003 cycles: 12614935 heartbeat IPC: 0.956256 cumulative IPC: 0.51431 (Simulation time: 0 hr 26 min 44 sec) 
Heartbeat CPU 0 instructions: 10000002 cycles: 7214999 heartbeat IPC: 1.16196 cumulative IPC: 1.07666 (Simulation time: 0 hr 26 min 45 sec) 
Heartbeat CPU 0 instructions: 10000001 cycles: 8564711 heartbeat IPC: 0.723575 cumulative IPC: 0.782494 (Simulation time: 0 hr 26 min 49 sec) 
Heartbeat CPU 0 instructions: 10000002 cycles: 6953618 heartbeat IPC: 1.08413 cumulative IPC: 1.07965 (Simulation time: 0 hr 26 min 56 sec) 
Heartbeat CPU 0 instructions: 9000000 cycles: 10721751 heartbeat IPC: 0.588942 cumulative IPC: 0.457945 (Simulation time: 0 hr 27 min 1 sec) 
Heartbeat CPU 0 instructions: 7000001 cycles: 7133158 heartbeat IPC: 0.49953 cumulative IPC: 0.490836 (Simulation time: 0 hr 27 min 4 sec) 
[...]
Heartbeat CPU 0 instructions: 54000000 cycles: 92789909 heartbeat IPC: 0.240377 cumulative IPC: 0.543696 (Simulation time: 3 hr 1 min 3 sec) 
Heartbeat CPU 0 instructions: 53000002 cycles: 89814750 heartbeat IPC: 0.553011 cumulative IPC: 0.552874 (Simulation time: 3 hr 1 min 4 sec) 
Heartbeat CPU 0 instructions: 49000000 cycles: 120475604 heartbeat IPC: 0.258142 cumulative IPC: 0.371885 (Simulation time: 3 hr 1 min 7 sec) 
Heartbeat CPU 0 instructions: 53000000 cycles: 387632379 heartbeat IPC: 0.142826 cumulative IPC: 0.124893 (Simulation time: 3 hr 1 min 10 sec) 
Heartbeat CPU 0 instructions: 52000000 cycles: 243910356 heartbeat IPC: 0.273878 cumulative IPC: 0.194844 (Simulation time: 3 hr 1 min 16 sec) 
Heartbeat CPU 0 instructions: 49000002 cycles: 138142762 heartbeat IPC: 0.327928 cumulative IPC: 0.325975 (Simulation time: 3 hr 1 min 17 sec) 
Heartbeat CPU 0 instructions: 54000003 cycles: 98790069 heartbeat IPC: 0.472283 cumulative IPC: 0.511848 (Simulation time: 3 hr 1 min 22 sec) 
Heartbeat CPU 0 instructions: 54000000 cycles: 126470935 heartbeat IPC: 0.380717 cumulative IPC: 0.396483 (Simulation time: 3 hr 1 min 25 sec) 
Heartbeat CPU 0 instructions: 43000001 cycles: 473709863 heartbeat IPC: 0.085442 cumulative IPC: 0.0806396 (Simulation time: 3 hr 1 min 34 sec) 
Heartbeat CPU 0 instructions: 41000000 cycles: 447473606 heartbeat IPC: 0.0831192 cumulative IPC: 0.0809032 (Simulation time: 3 hr 1 min 35 sec) 
Heartbeat CPU 0 instructions: 54000001 cycles: 110789111 heartbeat IPC: 0.55631 cumulative IPC: 0.454856 (Simulation time: 3 hr 1 min 37 sec) 
Heartbeat CPU 0 instructions: 50000001 cycles: 190980544 heartbeat IPC: 0.228247 cumulative IPC: 0.239332 (Simulation time: 3 hr 1 min 42 sec) 
Heartbeat CPU 0 instructions: 54000001 cycles: 91637369 heartbeat IPC: 0.54866 cumulative IPC: 0.552788 (Simulation time: 3 hr 1 min 43 sec) 
Heartbeat CPU 0 instructions: 54000001 cycles: 395463043 heartbeat IPC: 0.127703 cumulative IPC: 0.124949 (Simulation time: 3 hr 1 min 49 sec) 
Heartbeat CPU 0 instructions: 52000000 cycles: 107776474 heartbeat IPC: 0.283238 cumulative IPC: 0.448079 (Simulation time: 3 hr 1 min 52 sec) 
Heartbeat CPU 0 instructions: 45000001 cycles: 362023533 heartbeat IPC: 0.124879 cumulative IPC: 0.111252 (Simulation time: 3 hr 1 min 51 sec) 
Heartbeat CPU 0 instructions: 53000001 cycles: 247578816 heartbeat IPC: 0.272594 cumulative IPC: 0.196008 (Simulation time: 3 hr 1 min 53 sec) 
Heartbeat CPU 0 instructions: 50000001 cycles: 124205998 heartbeat IPC: 0.268068 cumulative IPC: 0.368712 (Simulation time: 3 hr 2 min 1 sec) 
Heartbeat CPU 0 instructions: 55000002 cycles: 96854221 heartbeat IPC: 0.246045 cumulative IPC: 0.530852 (Simulation time: 3 hr 2 min 3 sec) 
Finished CPU 0 instructions: 50000001 cycles: 94188178 cummulative IPC: 0.530852 (Simulation time: 3 hr 2 min 3 sec) 

ChampSim completed all CPUs

Region of Interest Statistics

CPU 0 cummulative IPC: 0.530852 instructions: 50000001 cycles: 94188178
LLC TOTAL     ACCESS:    1736135  HIT:     416022  MISS:    1320113
LLC LOAD      ACCESS:     931272  HIT:     126093  MISS:     805179
LLC RFO       ACCESS:     401938  HIT:        298  MISS:     401640
LLC PREFETCH  ACCESS:          0  HIT:          0  MISS:          0
LLC WRITEBACK ACCESS:     402925  HIT:     289631  MISS:     113294
Heartbeat CPU 0 instructions: 55000001 cycles: 101104784 heartbeat IPC: 0.432018 cumulative IPC: 0.509963 (Simulation time: 3 hr 2 min 3 sec) 
Finished CPU 0 instructions: 50000003 cycles: 98046302 cummulative IPC: 0.509963 (Simulation time: 3 hr 2 min 3 sec) 

ChampSim completed all CPUs

Region of Interest Statistics

CPU 0 cummulative IPC: 0.509963 instructions: 50000003 cycles: 98046302
LLC TOTAL     ACCESS:    1892702  HIT:     767905  MISS:    1124797
LLC LOAD      ACCESS:    1251733  HIT:     486232  MISS:     765501
LLC RFO       ACCESS:     263706  HIT:     103703  MISS:     160003
LLC PREFETCH  ACCESS:          0  HIT:          0  MISS:          0
LLC WRITEBACK ACCESS:     377263  HIT:     177970  MISS:     199293
Heartbeat CPU 0 instructions: 50000001 cycles: 141199264 heartbeat IPC: 0.327171 cumulative IPC: 0.326002 (Simulation time: 3 hr 2 min 4 sec) 
Heartbeat CPU 0 instructions: 55000003 cycles: 129043136 heartbeat IPC: 0.388773 cumulative IPC: 0.396326 (Simulation time: 3 hr 2 min 5 sec) 
Finished CPU 0 instructions: 50000000 cycles: 126158830 cummulative IPC: 0.396326 (Simulation time: 3 hr 2 min 5 sec) 

ChampSim completed all CPUs

Region of Interest Statistics

CPU 0 cummulative IPC: 0.396326 instructions: 50000000 cycles: 126158830
LLC TOTAL     ACCESS:      74305  HIT:      56006  MISS:      18299
LLC LOAD      ACCESS:      49411  HIT:      36288  MISS:      13123
LLC RFO       ACCESS:       9235  HIT:       4059  MISS:       5176
LLC PREFETCH  ACCESS:          0  HIT:          0  MISS:          0
LLC WRITEBACK ACCESS:      15659  HIT:      15659  MISS:          0
Heartbeat CPU 0 instructions: 55000000 cycles: 112638546 heartbeat IPC: 0.540705 cumulative IPC: 0.456305 (Simulation time: 3 hr 2 min 20 sec) 
Finished CPU 0 instructions: 50000002 cycles: 109575895 cummulative IPC: 0.456305 (Simulation time: 3 hr 2 min 20 sec) 

ChampSim completed all CPUs

Region of Interest Statistics

CPU 0 cummulative IPC: 0.456305 instructions: 50000002 cycles: 109575895
LLC TOTAL     ACCESS:    2288521  HIT:     866353  MISS:    1422168
LLC LOAD      ACCESS:    1470794  HIT:     490218  MISS:     980576
LLC RFO       ACCESS:     352036  HIT:      57081  MISS:     294955
LLC PREFETCH  ACCESS:          0  HIT:          0  MISS:          0
LLC WRITEBACK ACCESS:     465691  HIT:     319054  MISS:     146637
Heartbeat CPU 0 instructions: 55000000 cycles: 93461641 heartbeat IPC: 0.548163 cumulative IPC: 0.552694 (Simulation time: 3 hr 2 min 20 sec) 
Finished CPU 0 instructions: 50000001 cycles: 90465901 cummulative IPC: 0.552694 (Simulation time: 3 hr 2 min 20 sec) 

ChampSim completed all CPUs

Region of Interest Statistics

CPU 0 cummulative IPC: 0.552694 instructions: 50000001 cycles: 90465901
LLC TOTAL     ACCESS:      60289  HIT:      20783  MISS:      39506
LLC LOAD      ACCESS:      40787  HIT:       1765  MISS:      39022
LLC RFO       ACCESS:        538  HIT:         73  MISS:        465
LLC PREFETCH  ACCESS:          0  HIT:          0  MISS:          0
LLC WRITEBACK ACCESS:      18964  HIT:      18945  MISS:         19
Heartbeat CPU 0 instructions: 51000003 cycles: 195016834 heartbeat IPC: 0.247753 cumulative IPC: 0.239509 (Simulation time: 3 hr 2 min 24 sec) 
Heartbeat CPU 0 instructions: 55000001 cycles: 403634145 heartbeat IPC: 0.122383 cumulative IPC: 0.124897 (Simulation time: 3 hr 2 min 24 sec) 
Finished CPU 0 instructions: 50000000 cycles: 400331429 cummulative IPC: 0.124897 (Simulation time: 3 hr 2 min 24 sec) 

ChampSim completed all CPUs

Region of Interest Statistics

CPU 0 cummulative IPC: 0.124897 instructions: 50000000 cycles: 400331429
LLC TOTAL     ACCESS:    4073917  HIT:    1520530  MISS:    2553387
LLC LOAD      ACCESS:    1208957  HIT:     247363  MISS:     961594
LLC RFO       ACCESS:    1207739  HIT:     439223  MISS:     768516
LLC PREFETCH  ACCESS:          0  HIT:          0  MISS:          0
LLC WRITEBACK ACCESS:    1657221  HIT:     833944  MISS:     823277
Heartbeat CPU 0 instructions: 54000000 cycles: 251237887 heartbeat IPC: 0.273293 cumulative IPC: 0.197146 (Simulation time: 3 hr 2 min 24 sec) 
Heartbeat CPU 0 instructions: 42000000 cycles: 459510388 heartbeat IPC: 0.0830787 cumulative IPC: 0.0809605 (Simulation time: 3 hr 2 min 25 sec) 
Heartbeat CPU 0 instructions: 44000000 cycles: 486507866 heartbeat IPC: 0.0781371 cumulative IPC: 0.0805734 (Simulation time: 3 hr 2 min 25 sec) 
Heartbeat CPU 0 instructions: 53000001 cycles: 110962797 heartbeat IPC: 0.313842 cumulative IPC: 0.444121 (Simulation time: 3 hr 2 min 29 sec) 
Heartbeat CPU 0 instructions: 46000001 cycles: 367204637 heartbeat IPC: 0.193009 cumulative IPC: 0.112413 (Simulation time: 3 hr 2 min 29 sec) 
Heartbeat CPU 0 instructions: 51000002 cycles: 144226621 heartbeat IPC: 0.330321 cumulative IPC: 0.326094 (Simulation time: 3 hr 2 min 39 sec) 
Heartbeat CPU 0 instructions: 51000000 cycles: 128033882 heartbeat IPC: 0.261241 cumulative IPC: 0.365444 (Simulation time: 3 hr 2 min 41 sec) 
Heartbeat CPU 0 instructions: 55000000 cycles: 254912869 heartbeat IPC: 0.27211 cumulative IPC: 0.198238 (Simulation time: 3 hr 2 min 48 sec) 
Finished CPU 0 instructions: 50000000 cycles: 252221695 cummulative IPC: 0.198238 (Simulation time: 3 hr 2 min 48 sec) 

ChampSim completed all CPUs

Region of Interest Statistics

CPU 0 cummulative IPC: 0.198238 instructions: 50000000 cycles: 252221695
LLC TOTAL     ACCESS:    2080442  HIT:     354476  MISS:    1725966
LLC LOAD      ACCESS:    1000727  HIT:      62730  MISS:     937997
LLC RFO       ACCESS:     448012  HIT:      15010  MISS:     433002
LLC PREFETCH  ACCESS:          0  HIT:          0  MISS:          0
LLC WRITEBACK ACCESS:     631703  HIT:     276736  MISS:     354967
Heartbeat CPU 0 instructions: 45000000 cycles: 494209139 heartbeat IPC: 0.129849 cumulative IPC: 0.0813451 (Simulation time: 3 hr 2 min 51 sec) 
Heartbeat CPU 0 instructions: 52000000 cycles: 199463153 heartbeat IPC: 0.224904 cumulative IPC: 0.239178 (Simulation time: 3 hr 2 min 56 sec) 
Heartbeat CPU 0 instructions: 54000000 cycles: 114114668 heartbeat IPC: 0.317272 cumulative IPC: 0.440527 (Simulation time: 3 hr 2 min 58 sec) 
Heartbeat CPU 0 instructions: 43000000 cycles: 471609517 heartbeat IPC: 0.0826506 cumulative IPC: 0.0810041 (Simulation time: 3 hr 3 min 1 sec) 
Heartbeat CPU 0 instructions: 47000002 cycles: 377049865 heartbeat IPC: 0.101572 cumulative IPC: 0.112128 (Simulation time: 3 hr 3 min 5 sec) 
Heartbeat CPU 0 instructions: 52000000 cycles: 147239565 heartbeat IPC: 0.331901 cumulative IPC: 0.326216 (Simulation time: 3 hr 3 min 8 sec) 
Heartbeat CPU 0 instructions: 52000000 cycles: 131883470 heartbeat IPC: 0.259768 cumulative IPC: 0.362308 (Simulation time: 3 hr 3 min 12 sec) 
Heartbeat CPU 0 instructions: 46000002 cycles: 505352670 heartbeat IPC: 0.0897383 cumulative IPC: 0.0815311 (Simulation time: 3 hr 3 min 21 sec) 
Heartbeat CPU 0 instructions: 53000000 cycles: 204614218 heartbeat IPC: 0.194135 cumulative IPC: 0.238028 (Simulation time: 3 hr 3 min 21 sec) 
Heartbeat CPU 0 instructions: 55000002 cycles: 117246504 heartbeat IPC: 0.319302 cumulative IPC: 0.437207 (Simulation time: 3 hr 3 min 23 sec) 
Finished CPU 0 instructions: 50000002 cycles: 114362348 cummulative IPC: 0.437207 (Simulation time: 3 hr 3 min 23 sec) 

ChampSim completed all CPUs

Region of Interest Statistics

CPU 0 cummulative IPC: 0.437207 instructions: 50000002 cycles: 114362348
LLC TOTAL     ACCESS:    1860263  HIT:     808582  MISS:    1051681
LLC LOAD      ACCESS:    1091618  HIT:     189698  MISS:     901920
LLC RFO       ACCESS:     126461  HIT:     114410  MISS:      12051
LLC PREFETCH  ACCESS:          0  HIT:          0  MISS:          0
LLC WRITEBACK ACCESS:     642184  HIT:     504474  MISS:     137710
Heartbeat CPU 0 instructions: 44000000 cycles: 483731571 heartbeat IPC: 0.0824943 cumulative IPC: 0.0810417 (Simulation time: 3 hr 3 min 29 sec) 
Heartbeat CPU 0 instructions: 53000000 cycles: 150346488 heartbeat IPC: 0.321862 cumulative IPC: 0.326124 (Simulation time: 3 hr 3 min 32 sec) 
Heartbeat CPU 0 instructions: 48000000 cycles: 388794177 heartbeat IPC: 0.0851474 cumulative IPC: 0.111308 (Simulation time: 3 hr 3 min 34 sec) 
Heartbeat CPU 0 instructions: 53000000 cycles: 135776722 heartbeat IPC: 0.256855 cumulative IPC: 0.359235 (Simulation time: 3 hr 3 min 37 sec) 
Heartbeat CPU 0 instructions: 54000002 cycles: 209239624 heartbeat IPC: 0.216198 cumulative IPC: 0.237538 (Simulation time: 3 hr 3 min 41 sec) 
Heartbeat CPU 0 instructions: 47000002 cycles: 518299137 heartbeat IPC: 0.0772412 cumulative IPC: 0.0814234 (Simulation time: 3 hr 3 min 44 sec) 
Heartbeat CPU 0 instructions: 54000000 cycles: 153379523 heartbeat IPC: 0.329703 cumulative IPC: 0.326196 (Simulation time: 3 hr 3 min 50 sec) 
Heartbeat CPU 0 instructions: 45000001 cycles: 495805238 heartbeat IPC: 0.082825 cumulative IPC: 0.0810853 (Simulation time: 3 hr 3 min 50 sec) 
Heartbeat CPU 0 instructions: 49000000 cycles: 394169939 heartbeat IPC: 0.18602 cumulative IPC: 0.112333 (Simulation time: 3 hr 3 min 50 sec) 
Heartbeat CPU 0 instructions: 54000001 cycles: 138330975 heartbeat IPC: 0.391504 cumulative IPC: 0.35984 (Simulation time: 3 hr 3 min 53 sec) 
Heartbeat CPU 0 instructions: 55000001 cycles: 213502274 heartbeat IPC: 0.234596 cumulative IPC: 0.237479 (Simulation time: 3 hr 3 min 57 sec) 
Finished CPU 0 instructions: 50000001 cycles: 210545209 cummulative IPC: 0.237479 (Simulation time: 3 hr 3 min 57 sec) 

ChampSim completed all CPUs

Region of Interest Statistics

CPU 0 cummulative IPC: 0.237479 instructions: 50000001 cycles: 210545209
LLC TOTAL     ACCESS:    1600840  HIT:     721950  MISS:     878890
LLC LOAD      ACCESS:     959277  HIT:     258723  MISS:     700554
LLC RFO       ACCESS:     163513  HIT:      43254  MISS:     120259
LLC PREFETCH  ACCESS:          0  HIT:          0  MISS:          0
LLC WRITEBACK ACCESS:     478050  HIT:     419973  MISS:      58077
Heartbeat CPU 0 instructions: 48000000 cycles: 526246751 heartbeat IPC: 0.125824 cumulative IPC: 0.0820972 (Simulation time: 3 hr 3 min 58 sec) 
Heartbeat CPU 0 instructions: 55000003 cycles: 156405306 heartbeat IPC: 0.330494 cumulative IPC: 0.326281 (Simulation time: 3 hr 4 min 5 sec) 
Finished CPU 0 instructions: 50000000 cycles: 153242168 cummulative IPC: 0.326281 (Simulation time: 3 hr 4 min 5 sec) 

ChampSim completed all CPUs

Region of Interest Statistics

CPU 0 cummulative IPC: 0.326281 instructions: 50000000 cycles: 153242168
LLC TOTAL     ACCESS:    2633441  HIT:     438466  MISS:    2194975
LLC LOAD      ACCESS:    1915756  HIT:     418693  MISS:    1497063
LLC RFO       ACCESS:          0  HIT:          0  MISS:          0
LLC PREFETCH  ACCESS:          0  HIT:          0  MISS:          0
LLC WRITEBACK ACCESS:     717685  HIT:      19773  MISS:     697912
Heartbeat CPU 0 instructions: 50000001 cycles: 401082510 heartbeat IPC: 0.144664 cumulative IPC: 0.112894 (Simulation time: 3 hr 4 min 5 sec) 
Heartbeat CPU 0 instructions: 55000002 cycles: 140769897 heartbeat IPC: 0.410018 cumulative IPC: 0.360723 (Simulation time: 3 hr 4 min 7 sec) 
Finished CPU 0 instructions: 50000001 cycles: 138610381 cummulative IPC: 0.360723 (Simulation time: 3 hr 4 min 7 sec) 

ChampSim completed all CPUs

Region of Interest Statistics

CPU 0 cummulative IPC: 0.360723 instructions: 50000001 cycles: 138610381
LLC TOTAL     ACCESS:    1603460  HIT:     735261  MISS:     868199
LLC LOAD      ACCESS:    1394237  HIT:     536414  MISS:     857823
LLC RFO       ACCESS:      12669  HIT:       2798  MISS:       9871
LLC PREFETCH  ACCESS:          0  HIT:          0  MISS:          0
LLC WRITEBACK ACCESS:     196554  HIT:     196049  MISS:        505
Heartbeat CPU 0 instructions: 46000000 cycles: 507847172 heartbeat IPC: 0.0830431 cumulative IPC: 0.081132 (Simulation time: 3 hr 4 min 8 sec) 
Heartbeat CPU 0 instructions: 49000003 cycles: 537429234 heartbeat IPC: 0.0894258 cumulative IPC: 0.0822504 (Simulation time: 3 hr 4 min 11 sec) 
Heartbeat CPU 0 instructions: 47000002 cycles: 519851581 heartbeat IPC: 0.0833029 cumulative IPC: 0.0811823 (Simulation time: 3 hr 4 min 19 sec) 
Heartbeat CPU 0 instructions: 51000001 cycles: 415630113 heartbeat IPC: 0.0687398 cumulative IPC: 0.111339 (Simulation time: 3 hr 4 min 20 sec) 
Heartbeat CPU 0 instructions: 50000000 cycles: 550668663 heartbeat IPC: 0.0755317 cumulative IPC: 0.0820881 (Simulation time: 3 hr 4 min 24 sec) 
Heartbeat CPU 0 instructions: 52000000 cycles: 421036485 heartbeat IPC: 0.184967 cumulative IPC: 0.11229 (Simulation time: 3 hr 4 min 30 sec) 
Heartbeat CPU 0 instructions: 48000000 cycles: 531591902 heartbeat IPC: 0.0851764 cumulative IPC: 0.081271 (Simulation time: 3 hr 4 min 32 sec) 
Heartbeat CPU 0 instructions: 51000000 cycles: 558410379 heartbeat IPC: 0.12917 cumulative IPC: 0.0827437 (Simulation time: 3 hr 4 min 33 sec) 
Heartbeat CPU 0 instructions: 53000000 cycles: 426122503 heartbeat IPC: 0.196617 cumulative IPC: 0.113303 (Simulation time: 3 hr 4 min 39 sec) 
Heartbeat CPU 0 instructions: 49000000 cycles: 543736814 heartbeat IPC: 0.082339 cumulative IPC: 0.0812949 (Simulation time: 3 hr 4 min 43 sec) 
Heartbeat CPU 0 instructions: 52000000 cycles: 568955336 heartbeat IPC: 0.0948321 cumulative IPC: 0.0829688 (Simulation time: 3 hr 4 min 44 sec) 
Heartbeat CPU 0 instructions: 54000002 cycles: 441646842 heartbeat IPC: 0.0644151 cumulative IPC: 0.111574 (Simulation time: 3 hr 4 min 54 sec) 
Heartbeat CPU 0 instructions: 50000002 cycles: 555845609 heartbeat IPC: 0.0825848 cumulative IPC: 0.0813232 (Simulation time: 3 hr 4 min 55 sec) 
Heartbeat CPU 0 instructions: 53000000 cycles: 583020263 heartbeat IPC: 0.0710988 cumulative IPC: 0.0826812 (Simulation time: 3 hr 4 min 57 sec) 
Heartbeat CPU 0 instructions: 55000002 cycles: 447513636 heartbeat IPC: 0.170451 cumulative IPC: 0.112351 (Simulation time: 3 hr 5 min 4 sec) 
Finished CPU 0 instructions: 50000001 cycles: 445035752 cummulative IPC: 0.112351 (Simulation time: 3 hr 5 min 4 sec) 

ChampSim completed all CPUs

Region of Interest Statistics

CPU 0 cummulative IPC: 0.112351 instructions: 50000001 cycles: 445035752
LLC TOTAL     ACCESS:    5613622  HIT:    2378530  MISS:    3235092
LLC LOAD      ACCESS:    4493005  HIT:    1698357  MISS:    2794648
LLC RFO       ACCESS:      98847  HIT:      55467  MISS:      43380
LLC PREFETCH  ACCESS:          0  HIT:          0  MISS:          0
LLC WRITEBACK ACCESS:    1021770  HIT:     624706  MISS:     397064
Heartbeat CPU 0 instructions: 54000000 cycles: 591041183 heartbeat IPC: 0.124674 cumulative IPC: 0.0832535 (Simulation time: 3 hr 5 min 6 sec) 
Heartbeat CPU 0 instructions: 51000002 cycles: 567942421 heartbeat IPC: 0.0826664 cumulative IPC: 0.0813519 (Simulation time: 3 hr 5 min 7 sec) 
Heartbeat CPU 0 instructions: 55000000 cycles: 600257075 heartbeat IPC: 0.108508 cumulative IPC: 0.0836428 (Simulation time: 3 hr 5 min 13 sec) 
Finished CPU 0 instructions: 50000003 cycles: 597779935 cummulative IPC: 0.0836428 (Simulation time: 3 hr 5 min 13 sec) 

ChampSim completed all CPUs

Region of Interest Statistics

CPU 0 cummulative IPC: 0.0836428 instructions: 50000003 cycles: 597779935
LLC TOTAL     ACCESS:    6474215  HIT:    3062383  MISS:    3411832
LLC LOAD      ACCESS:    5697318  HIT:    2483666  MISS:    3213652
LLC RFO       ACCESS:      65925  HIT:      34353  MISS:      31572
LLC PREFETCH  ACCESS:          0  HIT:          0  MISS:          0
LLC WRITEBACK ACCESS:     710972  HIT:     544364  MISS:     166608
Heartbeat CPU 0 instructions: 52000000 cycles: 579956673 heartbeat IPC: 0.0832343 cumulative IPC: 0.0813911 (Simulation time: 3 hr 5 min 16 sec) 
Heartbeat CPU 0 instructions: 53000000 cycles: 592104442 heartbeat IPC: 0.0823196 cumulative IPC: 0.0814102 (Simulation time: 3 hr 5 min 23 sec) 
Heartbeat CPU 0 instructions: 54000000 cycles: 604109756 heartbeat IPC: 0.0832964 cumulative IPC: 0.0814478 (Simulation time: 3 hr 5 min 31 sec) 
Heartbeat CPU 0 instructions: 55000000 cycles: 616164113 heartbeat IPC: 0.0829576 cumulative IPC: 0.0814775 (Simulation time: 3 hr 5 min 39 sec) 
Finished CPU 0 instructions: 50000000 cycles: 613666437 cummulative IPC: 0.0814775 (Simulation time: 3 hr 5 min 39 sec) 

ChampSim completed all CPUs

Region of Interest Statistics

CPU 0 cummulative IPC: 0.0814775 instructions: 50000000 cycles: 613666437
LLC TOTAL     ACCESS:    7409446  HIT:    3905090  MISS:    3504356
LLC LOAD      ACCESS:    7242676  HIT:    3780304  MISS:    3462372
LLC RFO       ACCESS:      12949  HIT:       7255  MISS:       5694
LLC PREFETCH  ACCESS:          0  HIT:          0  MISS:          0
LLC WRITEBACK ACCESS:     153821  HIT:     117531  MISS:      36290
