
*** ChampSim Multicore Out-of-Order Simulator ***

Warmup Instructions: 5000000
Simulation Instructions: 50000000
Configuration: 1
Number of CPUs: 1
LLC sets: 2048
LLC ways: 16
Off-chip DRAM Channels: 1 Width: 64-bit Data Rate: 1600 MT/s

CPU 0 runs /datasets/cs240c-wi22-a00-public/data/Assignment2-gz/GemsFDTD_109B.trace.gz
Initialize LRU replacement state
Heartbeat CPU 0 instructions: 1000002 cycles: 577063 heartbeat IPC: 1.73292 cumulative IPC: 1.73292 (Simulation time: 0 hr 0 min 3 sec) 
Heartbeat CPU 0 instructions: 2000003 cycles: 1154104 heartbeat IPC: 1.73298 cumulative IPC: 1.73295 (Simulation time: 0 hr 0 min 6 sec) 
Heartbeat CPU 0 instructions: 3000000 cycles: 1730668 heartbeat IPC: 1.73441 cumulative IPC: 1.73343 (Simulation time: 0 hr 0 min 10 sec) 
Heartbeat CPU 0 instructions: 4000000 cycles: 2307198 heartbeat IPC: 1.73452 cumulative IPC: 1.7337 (Simulation time: 0 hr 0 min 14 sec) 
Heartbeat CPU 0 instructions: 5000000 cycles: 2884157 heartbeat IPC: 1.73323 cumulative IPC: 1.73361 (Simulation time: 0 hr 0 min 17 sec) 

Warmup complete CPU 0 instructions: 5000004 cycles: 2884158 (Simulation time: 0 hr 0 min 17 sec) 

Heartbeat CPU 0 instructions: 6000000 cycles: 5549727 heartbeat IPC: 0.375154 cumulative IPC: 0.375153 (Simulation time: 0 hr 0 min 22 sec) 
Heartbeat CPU 0 instructions: 7000001 cycles: 8185579 heartbeat IPC: 0.379384 cumulative IPC: 0.377257 (Simulation time: 0 hr 0 min 27 sec) 
Heartbeat CPU 0 instructions: 8000000 cycles: 10875252 heartbeat IPC: 0.371792 cumulative IPC: 0.375417 (Simulation time: 0 hr 0 min 32 sec) 
Heartbeat CPU 0 instructions: 9000002 cycles: 13502105 heartbeat IPC: 0.380684 cumulative IPC: 0.37672 (Simulation time: 0 hr 0 min 36 sec) 
Heartbeat CPU 0 instructions: 10000003 cycles: 16135223 heartbeat IPC: 0.379778 cumulative IPC: 0.377328 (Simulation time: 0 hr 0 min 41 sec) 
Heartbeat CPU 0 instructions: 11000001 cycles: 18773453 heartbeat IPC: 0.379041 cumulative IPC: 0.377613 (Simulation time: 0 hr 0 min 46 sec) 
Heartbeat CPU 0 instructions: 12000000 cycles: 21382147 heartbeat IPC: 0.383333 cumulative IPC: 0.378419 (Simulation time: 0 hr 0 min 50 sec) 
Heartbeat CPU 0 instructions: 13000001 cycles: 24087838 heartbeat IPC: 0.369592 cumulative IPC: 0.377293 (Simulation time: 0 hr 0 min 55 sec) 
Heartbeat CPU 0 instructions: 14000002 cycles: 26719783 heartbeat IPC: 0.379948 cumulative IPC: 0.377586 (Simulation time: 0 hr 0 min 59 sec) 
Heartbeat CPU 0 instructions: 15000000 cycles: 29374843 heartbeat IPC: 0.376639 cumulative IPC: 0.377491 (Simulation time: 0 hr 1 min 4 sec) 
Heartbeat CPU 0 instructions: 16000000 cycles: 32034124 heartbeat IPC: 0.376042 cumulative IPC: 0.377359 (Simulation time: 0 hr 1 min 9 sec) 
Heartbeat CPU 0 instructions: 17000000 cycles: 34729944 heartbeat IPC: 0.370945 cumulative IPC: 0.376816 (Simulation time: 0 hr 1 min 14 sec) 
Heartbeat CPU 0 instructions: 18000001 cycles: 37354946 heartbeat IPC: 0.380952 cumulative IPC: 0.377131 (Simulation time: 0 hr 1 min 19 sec) 
Heartbeat CPU 0 instructions: 19000001 cycles: 40036310 heartbeat IPC: 0.372945 cumulative IPC: 0.376829 (Simulation time: 0 hr 1 min 24 sec) 
Heartbeat CPU 0 instructions: 20000000 cycles: 42118579 heartbeat IPC: 0.480245 cumulative IPC: 0.382317 (Simulation time: 0 hr 1 min 28 sec) 
Heartbeat CPU 0 instructions: 21000001 cycles: 43421758 heartbeat IPC: 0.767355 cumulative IPC: 0.394695 (Simulation time: 0 hr 1 min 32 sec) 
Heartbeat CPU 0 instructions: 22000001 cycles: 46997121 heartbeat IPC: 0.279692 cumulative IPC: 0.385374 (Simulation time: 0 hr 1 min 37 sec) 
Heartbeat CPU 0 instructions: 23000001 cycles: 48293457 heartbeat IPC: 0.771405 cumulative IPC: 0.396395 (Simulation time: 0 hr 1 min 41 sec) 
Heartbeat CPU 0 instructions: 24000000 cycles: 52076871 heartbeat IPC: 0.264311 cumulative IPC: 0.386236 (Simulation time: 0 hr 1 min 45 sec) 
Heartbeat CPU 0 instructions: 25000003 cycles: 53358059 heartbeat IPC: 0.780528 cumulative IPC: 0.396244 (Simulation time: 0 hr 1 min 49 sec) 
Heartbeat CPU 0 instructions: 26000000 cycles: 57143060 heartbeat IPC: 0.2642 cumulative IPC: 0.387033 (Simulation time: 0 hr 1 min 53 sec) 
Heartbeat CPU 0 instructions: 27000000 cycles: 58397713 heartbeat IPC: 0.797033 cumulative IPC: 0.3963 (Simulation time: 0 hr 1 min 57 sec) 
Heartbeat CPU 0 instructions: 28000000 cycles: 62054564 heartbeat IPC: 0.273459 cumulative IPC: 0.388708 (Simulation time: 0 hr 2 min 2 sec) 
Heartbeat CPU 0 instructions: 29000000 cycles: 63313927 heartbeat IPC: 0.794052 cumulative IPC: 0.397155 (Simulation time: 0 hr 2 min 6 sec) 
Heartbeat CPU 0 instructions: 30000003 cycles: 65027301 heartbeat IPC: 0.583645 cumulative IPC: 0.402297 (Simulation time: 0 hr 2 min 9 sec) 
Heartbeat CPU 0 instructions: 31000002 cycles: 66242635 heartbeat IPC: 0.822818 cumulative IPC: 0.410363 (Simulation time: 0 hr 2 min 13 sec) 
Heartbeat CPU 0 instructions: 32000000 cycles: 67804140 heartbeat IPC: 0.640407 cumulative IPC: 0.415897 (Simulation time: 0 hr 2 min 17 sec) 
Heartbeat CPU 0 instructions: 33000003 cycles: 69023015 heartbeat IPC: 0.820431 cumulative IPC: 0.423352 (Simulation time: 0 hr 2 min 21 sec) 
Heartbeat CPU 0 instructions: 34000002 cycles: 70526565 heartbeat IPC: 0.665092 cumulative IPC: 0.428725 (Simulation time: 0 hr 2 min 25 sec) 
Heartbeat CPU 0 instructions: 35000003 cycles: 71802444 heartbeat IPC: 0.783774 cumulative IPC: 0.435298 (Simulation time: 0 hr 2 min 29 sec) 
Heartbeat CPU 0 instructions: 36000000 cycles: 73353536 heartbeat IPC: 0.644705 cumulative IPC: 0.439907 (Simulation time: 0 hr 2 min 32 sec) 
Heartbeat CPU 0 instructions: 37000000 cycles: 74701611 heartbeat IPC: 0.741799 cumulative IPC: 0.445574 (Simulation time: 0 hr 2 min 37 sec) 
Heartbeat CPU 0 instructions: 38000001 cycles: 76049613 heartbeat IPC: 0.741839 cumulative IPC: 0.451032 (Simulation time: 0 hr 2 min 41 sec) 
Heartbeat CPU 0 instructions: 39000000 cycles: 77397508 heartbeat IPC: 0.741897 cumulative IPC: 0.456294 (Simulation time: 0 hr 2 min 45 sec) 
Heartbeat CPU 0 instructions: 40000000 cycles: 78745523 heartbeat IPC: 0.741831 cumulative IPC: 0.461368 (Simulation time: 0 hr 2 min 50 sec) 
Heartbeat CPU 0 instructions: 41000000 cycles: 80173569 heartbeat IPC: 0.700258 cumulative IPC: 0.465782 (Simulation time: 0 hr 2 min 54 sec) 
Heartbeat CPU 0 instructions: 42000000 cycles: 81522133 heartbeat IPC: 0.74153 cumulative IPC: 0.470511 (Simulation time: 0 hr 2 min 58 sec) 
Heartbeat CPU 0 instructions: 43000002 cycles: 82870831 heartbeat IPC: 0.741457 cumulative IPC: 0.475079 (Simulation time: 0 hr 3 min 2 sec) 
Heartbeat CPU 0 instructions: 44000000 cycles: 84219353 heartbeat IPC: 0.741551 cumulative IPC: 0.479497 (Simulation time: 0 hr 3 min 6 sec) 
Heartbeat CPU 0 instructions: 45000001 cycles: 85567716 heartbeat IPC: 0.741641 cumulative IPC: 0.483772 (Simulation time: 0 hr 3 min 11 sec) 
Heartbeat CPU 0 instructions: 46000002 cycles: 87121361 heartbeat IPC: 0.643648 cumulative IPC: 0.486721 (Simulation time: 0 hr 3 min 15 sec) 
Heartbeat CPU 0 instructions: 47000001 cycles: 88558560 heartbeat IPC: 0.695797 cumulative IPC: 0.490228 (Simulation time: 0 hr 3 min 18 sec) 
Heartbeat CPU 0 instructions: 48000000 cycles: 90114737 heartbeat IPC: 0.6426 cumulative IPC: 0.492946 (Simulation time: 0 hr 3 min 22 sec) 
Heartbeat CPU 0 instructions: 49000003 cycles: 99924798 heartbeat IPC: 0.101936 cumulative IPC: 0.453418 (Simulation time: 0 hr 3 min 28 sec) 
Heartbeat CPU 0 instructions: 50000002 cycles: 103209379 heartbeat IPC: 0.304453 cumulative IPC: 0.448541 (Simulation time: 0 hr 3 min 33 sec) 
Heartbeat CPU 0 instructions: 51000003 cycles: 106687433 heartbeat IPC: 0.287517 cumulative IPC: 0.443146 (Simulation time: 0 hr 3 min 39 sec) 
Heartbeat CPU 0 instructions: 52000000 cycles: 110210254 heartbeat IPC: 0.283863 cumulative IPC: 0.437918 (Simulation time: 0 hr 3 min 44 sec) 
Heartbeat CPU 0 instructions: 53000000 cycles: 113716745 heartbeat IPC: 0.285185 cumulative IPC: 0.433086 (Simulation time: 0 hr 3 min 49 sec) 
Heartbeat CPU 0 instructions: 54000000 cycles: 117237990 heartbeat IPC: 0.28399 cumulative IPC: 0.428495 (Simulation time: 0 hr 3 min 55 sec) 
Heartbeat CPU 0 instructions: 55000000 cycles: 120751172 heartbeat IPC: 0.284642 cumulative IPC: 0.424207 (Simulation time: 0 hr 4 min 0 sec) 
Finished CPU 0 instructions: 50000000 cycles: 117867030 cummulative IPC: 0.424207 (Simulation time: 0 hr 4 min 0 sec) 

ChampSim completed all CPUs

Region of Interest Statistics

CPU 0 cummulative IPC: 0.424207 instructions: 50000000 cycles: 117867030
LLC TOTAL     ACCESS:    1860305  HIT:     843428  MISS:    1016877
LLC LOAD      ACCESS:    1091620  HIT:     112079  MISS:     979541
LLC RFO       ACCESS:     126461  HIT:      89148  MISS:      37313
LLC PREFETCH  ACCESS:          0  HIT:          0  MISS:          0
LLC WRITEBACK ACCESS:     642224  HIT:     642201  MISS:         23

*** ChampSim Multicore Out-of-Order Simulator ***

Warmup Instructions: 5000000
Simulation Instructions: 50000000
Configuration: 1
Number of CPUs: 1
LLC sets: 2048
LLC ways: 16
Off-chip DRAM Channels: 1 Width: 64-bit Data Rate: 1600 MT/s

CPU 0 runs /datasets/cs240c-wi22-a00-public/data/Assignment2-gz/GemsFDTD_712B.trace.gz
Initialize LRU replacement state
Heartbeat CPU 0 instructions: 1000003 cycles: 633083 heartbeat IPC: 1.57958 cumulative IPC: 1.57958 (Simulation time: 0 hr 0 min 4 sec) 
Heartbeat CPU 0 instructions: 2000000 cycles: 1266039 heartbeat IPC: 1.57988 cumulative IPC: 1.57973 (Simulation time: 0 hr 0 min 7 sec) 
Heartbeat CPU 0 instructions: 3000000 cycles: 1898604 heartbeat IPC: 1.58087 cumulative IPC: 1.58011 (Simulation time: 0 hr 0 min 11 sec) 
Heartbeat CPU 0 instructions: 4000000 cycles: 2530935 heartbeat IPC: 1.58145 cumulative IPC: 1.58044 (Simulation time: 0 hr 0 min 15 sec) 
Heartbeat CPU 0 instructions: 5000003 cycles: 3163395 heartbeat IPC: 1.58113 cumulative IPC: 1.58058 (Simulation time: 0 hr 0 min 18 sec) 

Warmup complete CPU 0 instructions: 5000003 cycles: 3163395 (Simulation time: 0 hr 0 min 18 sec) 

Heartbeat CPU 0 instructions: 6000002 cycles: 6669375 heartbeat IPC: 0.285227 cumulative IPC: 0.285227 (Simulation time: 0 hr 0 min 24 sec) 
Heartbeat CPU 0 instructions: 7000000 cycles: 10151362 heartbeat IPC: 0.287192 cumulative IPC: 0.286206 (Simulation time: 0 hr 0 min 29 sec) 
Heartbeat CPU 0 instructions: 8000000 cycles: 13690265 heartbeat IPC: 0.282573 cumulative IPC: 0.284985 (Simulation time: 0 hr 0 min 35 sec) 
Heartbeat CPU 0 instructions: 9000002 cycles: 17172185 heartbeat IPC: 0.287198 cumulative IPC: 0.285535 (Simulation time: 0 hr 0 min 40 sec) 
Heartbeat CPU 0 instructions: 10000003 cycles: 20676198 heartbeat IPC: 0.285387 cumulative IPC: 0.285505 (Simulation time: 0 hr 0 min 46 sec) 
Heartbeat CPU 0 instructions: 11000001 cycles: 24225348 heartbeat IPC: 0.281757 cumulative IPC: 0.284874 (Simulation time: 0 hr 0 min 51 sec) 
Heartbeat CPU 0 instructions: 12000000 cycles: 27762803 heartbeat IPC: 0.282689 cumulative IPC: 0.28456 (Simulation time: 0 hr 0 min 57 sec) 
Heartbeat CPU 0 instructions: 13000002 cycles: 31298010 heartbeat IPC: 0.282869 cumulative IPC: 0.284347 (Simulation time: 0 hr 1 min 2 sec) 
Heartbeat CPU 0 instructions: 14000002 cycles: 34832222 heartbeat IPC: 0.282948 cumulative IPC: 0.284191 (Simulation time: 0 hr 1 min 8 sec) 
Heartbeat CPU 0 instructions: 15000000 cycles: 38284710 heartbeat IPC: 0.289646 cumulative IPC: 0.284727 (Simulation time: 0 hr 1 min 13 sec) 
Heartbeat CPU 0 instructions: 16000000 cycles: 41818265 heartbeat IPC: 0.283001 cumulative IPC: 0.28457 (Simulation time: 0 hr 1 min 19 sec) 
Heartbeat CPU 0 instructions: 17000000 cycles: 45314006 heartbeat IPC: 0.286062 cumulative IPC: 0.284693 (Simulation time: 0 hr 1 min 24 sec) 
Heartbeat CPU 0 instructions: 18000001 cycles: 48896107 heartbeat IPC: 0.279166 cumulative IPC: 0.28426 (Simulation time: 0 hr 1 min 30 sec) 
Heartbeat CPU 0 instructions: 19000000 cycles: 52397928 heartbeat IPC: 0.285565 cumulative IPC: 0.284353 (Simulation time: 0 hr 1 min 35 sec) 
Heartbeat CPU 0 instructions: 20000000 cycles: 55905300 heartbeat IPC: 0.285114 cumulative IPC: 0.284404 (Simulation time: 0 hr 1 min 41 sec) 
Heartbeat CPU 0 instructions: 21000003 cycles: 59428441 heartbeat IPC: 0.283838 cumulative IPC: 0.284368 (Simulation time: 0 hr 1 min 46 sec) 
Heartbeat CPU 0 instructions: 22000000 cycles: 62950733 heartbeat IPC: 0.283905 cumulative IPC: 0.284341 (Simulation time: 0 hr 1 min 52 sec) 
Heartbeat CPU 0 instructions: 23000002 cycles: 66456744 heartbeat IPC: 0.285225 cumulative IPC: 0.28439 (Simulation time: 0 hr 1 min 57 sec) 
Heartbeat CPU 0 instructions: 24000000 cycles: 70059800 heartbeat IPC: 0.277542 cumulative IPC: 0.284021 (Simulation time: 0 hr 2 min 3 sec) 
Heartbeat CPU 0 instructions: 25000000 cycles: 73616802 heartbeat IPC: 0.281136 cumulative IPC: 0.283876 (Simulation time: 0 hr 2 min 8 sec) 
Heartbeat CPU 0 instructions: 26000002 cycles: 77115733 heartbeat IPC: 0.285802 cumulative IPC: 0.283967 (Simulation time: 0 hr 2 min 13 sec) 
Heartbeat CPU 0 instructions: 27000002 cycles: 80686959 heartbeat IPC: 0.280016 cumulative IPC: 0.283785 (Simulation time: 0 hr 2 min 19 sec) 
Heartbeat CPU 0 instructions: 28000000 cycles: 84190008 heartbeat IPC: 0.285465 cumulative IPC: 0.283857 (Simulation time: 0 hr 2 min 24 sec) 
Heartbeat CPU 0 instructions: 29000001 cycles: 87694707 heartbeat IPC: 0.285331 cumulative IPC: 0.283918 (Simulation time: 0 hr 2 min 29 sec) 
Heartbeat CPU 0 instructions: 30000002 cycles: 91206722 heartbeat IPC: 0.284737 cumulative IPC: 0.283951 (Simulation time: 0 hr 2 min 35 sec) 
Heartbeat CPU 0 instructions: 31000001 cycles: 94710203 heartbeat IPC: 0.28543 cumulative IPC: 0.284008 (Simulation time: 0 hr 2 min 40 sec) 
Heartbeat CPU 0 instructions: 32000000 cycles: 98263314 heartbeat IPC: 0.281443 cumulative IPC: 0.283912 (Simulation time: 0 hr 2 min 45 sec) 
Heartbeat CPU 0 instructions: 33000000 cycles: 101760578 heartbeat IPC: 0.285938 cumulative IPC: 0.283984 (Simulation time: 0 hr 2 min 51 sec) 
Heartbeat CPU 0 instructions: 34000003 cycles: 105236833 heartbeat IPC: 0.287667 cumulative IPC: 0.284109 (Simulation time: 0 hr 2 min 56 sec) 
Heartbeat CPU 0 instructions: 35000000 cycles: 108775953 heartbeat IPC: 0.282555 cumulative IPC: 0.284057 (Simulation time: 0 hr 3 min 1 sec) 
Heartbeat CPU 0 instructions: 36000000 cycles: 112328773 heartbeat IPC: 0.281467 cumulative IPC: 0.283973 (Simulation time: 0 hr 3 min 6 sec) 
Heartbeat CPU 0 instructions: 37000001 cycles: 115822275 heartbeat IPC: 0.286246 cumulative IPC: 0.284043 (Simulation time: 0 hr 3 min 11 sec) 
Heartbeat CPU 0 instructions: 38000002 cycles: 119306949 heartbeat IPC: 0.286971 cumulative IPC: 0.284131 (Simulation time: 0 hr 3 min 16 sec) 
Heartbeat CPU 0 instructions: 39000000 cycles: 122894641 heartbeat IPC: 0.27873 cumulative IPC: 0.283969 (Simulation time: 0 hr 3 min 21 sec) 
Heartbeat CPU 0 instructions: 40000000 cycles: 126374006 heartbeat IPC: 0.287409 cumulative IPC: 0.284066 (Simulation time: 0 hr 3 min 26 sec) 
Heartbeat CPU 0 instructions: 41000002 cycles: 129878145 heartbeat IPC: 0.285377 cumulative IPC: 0.284103 (Simulation time: 0 hr 3 min 31 sec) 
Heartbeat CPU 0 instructions: 42000000 cycles: 133422818 heartbeat IPC: 0.282113 cumulative IPC: 0.284049 (Simulation time: 0 hr 3 min 37 sec) 
Heartbeat CPU 0 instructions: 43000001 cycles: 136968822 heartbeat IPC: 0.282008 cumulative IPC: 0.283994 (Simulation time: 0 hr 3 min 42 sec) 
Heartbeat CPU 0 instructions: 44000000 cycles: 140480463 heartbeat IPC: 0.284767 cumulative IPC: 0.284014 (Simulation time: 0 hr 3 min 47 sec) 
Heartbeat CPU 0 instructions: 45000003 cycles: 143989416 heartbeat IPC: 0.284986 cumulative IPC: 0.284038 (Simulation time: 0 hr 3 min 52 sec) 
Heartbeat CPU 0 instructions: 46000000 cycles: 147471584 heartbeat IPC: 0.287177 cumulative IPC: 0.284114 (Simulation time: 0 hr 3 min 58 sec) 
Heartbeat CPU 0 instructions: 47000000 cycles: 150993467 heartbeat IPC: 0.283939 cumulative IPC: 0.28411 (Simulation time: 0 hr 4 min 3 sec) 
Heartbeat CPU 0 instructions: 48000000 cycles: 154529160 heartbeat IPC: 0.28283 cumulative IPC: 0.28408 (Simulation time: 0 hr 4 min 8 sec) 
Heartbeat CPU 0 instructions: 49000002 cycles: 158000116 heartbeat IPC: 0.288106 cumulative IPC: 0.28417 (Simulation time: 0 hr 4 min 13 sec) 
Heartbeat CPU 0 instructions: 50000001 cycles: 161524401 heartbeat IPC: 0.283745 cumulative IPC: 0.284161 (Simulation time: 0 hr 4 min 18 sec) 
Heartbeat CPU 0 instructions: 51000002 cycles: 165034361 heartbeat IPC: 0.284904 cumulative IPC: 0.284177 (Simulation time: 0 hr 4 min 23 sec) 
Heartbeat CPU 0 instructions: 52000000 cycles: 168541614 heartbeat IPC: 0.285123 cumulative IPC: 0.284197 (Simulation time: 0 hr 4 min 28 sec) 
Heartbeat CPU 0 instructions: 53000000 cycles: 172133140 heartbeat IPC: 0.278433 cumulative IPC: 0.284075 (Simulation time: 0 hr 4 min 33 sec) 
Heartbeat CPU 0 instructions: 54000000 cycles: 175601177 heartbeat IPC: 0.288348 cumulative IPC: 0.28416 (Simulation time: 0 hr 4 min 38 sec) 
Heartbeat CPU 0 instructions: 55000003 cycles: 179046480 heartbeat IPC: 0.290251 cumulative IPC: 0.28428 (Simulation time: 0 hr 4 min 43 sec) 
Finished CPU 0 instructions: 50000000 cycles: 175883085 cummulative IPC: 0.28428 (Simulation time: 0 hr 4 min 43 sec) 

ChampSim completed all CPUs

Region of Interest Statistics

CPU 0 cummulative IPC: 0.28428 instructions: 50000000 cycles: 175883085
LLC TOTAL     ACCESS:    2633441  HIT:     747957  MISS:    1885484
LLC LOAD      ACCESS:    1915755  HIT:      30359  MISS:    1885396
LLC RFO       ACCESS:          0  HIT:          0  MISS:          0
LLC PREFETCH  ACCESS:          0  HIT:          0  MISS:          0
LLC WRITEBACK ACCESS:     717686  HIT:     717598  MISS:         88

*** ChampSim Multicore Out-of-Order Simulator ***

Warmup Instructions: 5000000
Simulation Instructions: 50000000
Configuration: 1
Number of CPUs: 1
LLC sets: 2048
LLC ways: 16
Off-chip DRAM Channels: 1 Width: 64-bit Data Rate: 1600 MT/s

CPU 0 runs /datasets/cs240c-wi22-a00-public/data/Assignment2-gz/GemsFDTD_716B.trace.gz
Initialize LRU replacement state
Heartbeat CPU 0 instructions: 1000000 cycles: 415494 heartbeat IPC: 2.40677 cumulative IPC: 2.40677 (Simulation time: 0 hr 0 min 3 sec) 
Heartbeat CPU 0 instructions: 2000003 cycles: 830875 heartbeat IPC: 2.40744 cumulative IPC: 2.4071 (Simulation time: 0 hr 0 min 6 sec) 
Heartbeat CPU 0 instructions: 3000000 cycles: 1286935 heartbeat IPC: 2.19269 cumulative IPC: 2.33112 (Simulation time: 0 hr 0 min 9 sec) 
Heartbeat CPU 0 instructions: 4000000 cycles: 1744228 heartbeat IPC: 2.18678 cumulative IPC: 2.29328 (Simulation time: 0 hr 0 min 12 sec) 
Heartbeat CPU 0 instructions: 5000000 cycles: 2159515 heartbeat IPC: 2.40797 cumulative IPC: 2.31533 (Simulation time: 0 hr 0 min 15 sec) 

Warmup complete CPU 0 instructions: 5000001 cycles: 2159516 (Simulation time: 0 hr 0 min 15 sec) 

Heartbeat CPU 0 instructions: 6000000 cycles: 3507343 heartbeat IPC: 0.741934 cumulative IPC: 0.741934 (Simulation time: 0 hr 0 min 19 sec) 
Heartbeat CPU 0 instructions: 7000000 cycles: 4855253 heartbeat IPC: 0.741889 cumulative IPC: 0.741912 (Simulation time: 0 hr 0 min 24 sec) 
Heartbeat CPU 0 instructions: 8000000 cycles: 6265951 heartbeat IPC: 0.708869 cumulative IPC: 0.73056 (Simulation time: 0 hr 0 min 28 sec) 
Heartbeat CPU 0 instructions: 9000003 cycles: 9462158 heartbeat IPC: 0.312872 cumulative IPC: 0.547747 (Simulation time: 0 hr 0 min 33 sec) 
Heartbeat CPU 0 instructions: 10000001 cycles: 12971765 heartbeat IPC: 0.284932 cumulative IPC: 0.462438 (Simulation time: 0 hr 0 min 38 sec) 
Heartbeat CPU 0 instructions: 11000000 cycles: 16392129 heartbeat IPC: 0.292366 cumulative IPC: 0.421567 (Simulation time: 0 hr 0 min 44 sec) 
Heartbeat CPU 0 instructions: 12000000 cycles: 19813826 heartbeat IPC: 0.292253 cumulative IPC: 0.396504 (Simulation time: 0 hr 0 min 49 sec) 
Heartbeat CPU 0 instructions: 13000000 cycles: 23242095 heartbeat IPC: 0.291692 cumulative IPC: 0.37946 (Simulation time: 0 hr 0 min 55 sec) 
Heartbeat CPU 0 instructions: 14000000 cycles: 26831933 heartbeat IPC: 0.278564 cumulative IPC: 0.36478 (Simulation time: 0 hr 1 min 0 sec) 
Heartbeat CPU 0 instructions: 15000000 cycles: 30571349 heartbeat IPC: 0.267421 cumulative IPC: 0.351966 (Simulation time: 0 hr 1 min 6 sec) 
Heartbeat CPU 0 instructions: 16000000 cycles: 34319726 heartbeat IPC: 0.266782 cumulative IPC: 0.342038 (Simulation time: 0 hr 1 min 11 sec) 
Heartbeat CPU 0 instructions: 17000002 cycles: 38071482 heartbeat IPC: 0.266542 cumulative IPC: 0.33415 (Simulation time: 0 hr 1 min 16 sec) 
Heartbeat CPU 0 instructions: 18000003 cycles: 41814809 heartbeat IPC: 0.267142 cumulative IPC: 0.327825 (Simulation time: 0 hr 1 min 22 sec) 
Heartbeat CPU 0 instructions: 19000000 cycles: 45556961 heartbeat IPC: 0.267225 cumulative IPC: 0.3226 (Simulation time: 0 hr 1 min 28 sec) 
Heartbeat CPU 0 instructions: 20000000 cycles: 48560702 heartbeat IPC: 0.332918 cumulative IPC: 0.323268 (Simulation time: 0 hr 1 min 33 sec) 
Heartbeat CPU 0 instructions: 21000000 cycles: 51310253 heartbeat IPC: 0.363696 cumulative IPC: 0.325529 (Simulation time: 0 hr 1 min 37 sec) 
Heartbeat CPU 0 instructions: 22000000 cycles: 54015907 heartbeat IPC: 0.369596 cumulative IPC: 0.327828 (Simulation time: 0 hr 1 min 42 sec) 
Heartbeat CPU 0 instructions: 23000002 cycles: 56714684 heartbeat IPC: 0.370539 cumulative IPC: 0.329941 (Simulation time: 0 hr 1 min 47 sec) 
Heartbeat CPU 0 instructions: 24000000 cycles: 59441774 heartbeat IPC: 0.366691 cumulative IPC: 0.331691 (Simulation time: 0 hr 1 min 51 sec) 
Heartbeat CPU 0 instructions: 25000002 cycles: 62113874 heartbeat IPC: 0.374238 cumulative IPC: 0.333587 (Simulation time: 0 hr 1 min 56 sec) 
Heartbeat CPU 0 instructions: 26000002 cycles: 64510528 heartbeat IPC: 0.417248 cumulative IPC: 0.336803 (Simulation time: 0 hr 2 min 1 sec) 
Heartbeat CPU 0 instructions: 27000002 cycles: 66881464 heartbeat IPC: 0.421774 cumulative IPC: 0.339916 (Simulation time: 0 hr 2 min 5 sec) 
Heartbeat CPU 0 instructions: 28000000 cycles: 69156386 heartbeat IPC: 0.439575 cumulative IPC: 0.3433 (Simulation time: 0 hr 2 min 10 sec) 
Heartbeat CPU 0 instructions: 29000002 cycles: 71481834 heartbeat IPC: 0.430026 cumulative IPC: 0.346209 (Simulation time: 0 hr 2 min 14 sec) 
Heartbeat CPU 0 instructions: 30000002 cycles: 73721869 heartbeat IPC: 0.446422 cumulative IPC: 0.349346 (Simulation time: 0 hr 2 min 18 sec) 
Heartbeat CPU 0 instructions: 31000001 cycles: 75472836 heartbeat IPC: 0.571112 cumulative IPC: 0.354642 (Simulation time: 0 hr 2 min 22 sec) 
Heartbeat CPU 0 instructions: 32000000 cycles: 77235747 heartbeat IPC: 0.567243 cumulative IPC: 0.359634 (Simulation time: 0 hr 2 min 26 sec) 
Heartbeat CPU 0 instructions: 33000000 cycles: 78997922 heartbeat IPC: 0.567481 cumulative IPC: 0.364401 (Simulation time: 0 hr 2 min 31 sec) 
Heartbeat CPU 0 instructions: 34000000 cycles: 80763756 heartbeat IPC: 0.566305 cumulative IPC: 0.368937 (Simulation time: 0 hr 2 min 35 sec) 
Heartbeat CPU 0 instructions: 35000001 cycles: 82523951 heartbeat IPC: 0.568119 cumulative IPC: 0.373299 (Simulation time: 0 hr 2 min 39 sec) 
Heartbeat CPU 0 instructions: 36000000 cycles: 84329751 heartbeat IPC: 0.553771 cumulative IPC: 0.377266 (Simulation time: 0 hr 2 min 43 sec) 
Heartbeat CPU 0 instructions: 37000002 cycles: 86187774 heartbeat IPC: 0.538208 cumulative IPC: 0.380824 (Simulation time: 0 hr 2 min 47 sec) 
Heartbeat CPU 0 instructions: 38000002 cycles: 87971246 heartbeat IPC: 0.560704 cumulative IPC: 0.384563 (Simulation time: 0 hr 2 min 51 sec) 
Heartbeat CPU 0 instructions: 39000000 cycles: 89759570 heartbeat IPC: 0.559182 cumulative IPC: 0.388128 (Simulation time: 0 hr 2 min 56 sec) 
Heartbeat CPU 0 instructions: 40000000 cycles: 91564450 heartbeat IPC: 0.554053 cumulative IPC: 0.391477 (Simulation time: 0 hr 3 min 0 sec) 
Heartbeat CPU 0 instructions: 41000002 cycles: 93358541 heartbeat IPC: 0.557386 cumulative IPC: 0.394741 (Simulation time: 0 hr 3 min 4 sec) 
Heartbeat CPU 0 instructions: 42000001 cycles: 95170400 heartbeat IPC: 0.551919 cumulative IPC: 0.397803 (Simulation time: 0 hr 3 min 8 sec) 
Heartbeat CPU 0 instructions: 43000002 cycles: 98192883 heartbeat IPC: 0.330854 cumulative IPC: 0.395696 (Simulation time: 0 hr 3 min 13 sec) 
Heartbeat CPU 0 instructions: 44000000 cycles: 101638539 heartbeat IPC: 0.29022 cumulative IPC: 0.392042 (Simulation time: 0 hr 3 min 18 sec) 
Heartbeat CPU 0 instructions: 45000001 cycles: 105079927 heartbeat IPC: 0.290581 cumulative IPC: 0.38865 (Simulation time: 0 hr 3 min 23 sec) 
Heartbeat CPU 0 instructions: 46000002 cycles: 108526154 heartbeat IPC: 0.290173 cumulative IPC: 0.385459 (Simulation time: 0 hr 3 min 28 sec) 
Heartbeat CPU 0 instructions: 47000000 cycles: 111971410 heartbeat IPC: 0.290254 cumulative IPC: 0.382472 (Simulation time: 0 hr 3 min 34 sec) 
Heartbeat CPU 0 instructions: 48000000 cycles: 115639193 heartbeat IPC: 0.272644 cumulative IPC: 0.378922 (Simulation time: 0 hr 3 min 39 sec) 
Heartbeat CPU 0 instructions: 49000000 cycles: 119360021 heartbeat IPC: 0.268757 cumulative IPC: 0.375425 (Simulation time: 0 hr 3 min 44 sec) 
Heartbeat CPU 0 instructions: 50000001 cycles: 123085574 heartbeat IPC: 0.268417 cumulative IPC: 0.372128 (Simulation time: 0 hr 3 min 50 sec) 
Heartbeat CPU 0 instructions: 51000000 cycles: 126806973 heartbeat IPC: 0.268716 cumulative IPC: 0.369041 (Simulation time: 0 hr 3 min 55 sec) 
Heartbeat CPU 0 instructions: 52000000 cycles: 130530539 heartbeat IPC: 0.26856 cumulative IPC: 0.366126 (Simulation time: 0 hr 4 min 0 sec) 
Heartbeat CPU 0 instructions: 53000000 cycles: 134329178 heartbeat IPC: 0.263252 cumulative IPC: 0.36317 (Simulation time: 0 hr 4 min 6 sec) 
Heartbeat CPU 0 instructions: 54000001 cycles: 136671995 heartbeat IPC: 0.426837 cumulative IPC: 0.364278 (Simulation time: 0 hr 4 min 10 sec) 
Heartbeat CPU 0 instructions: 55000002 cycles: 138997946 heartbeat IPC: 0.429932 cumulative IPC: 0.365394 (Simulation time: 0 hr 4 min 15 sec) 
Finished CPU 0 instructions: 50000001 cycles: 136838430 cummulative IPC: 0.365394 (Simulation time: 0 hr 4 min 15 sec) 

ChampSim completed all CPUs

Region of Interest Statistics

CPU 0 cummulative IPC: 0.365394 instructions: 50000001 cycles: 136838430
LLC TOTAL     ACCESS:    1547157  HIT:     702495  MISS:     844662
LLC LOAD      ACCESS:    1363388  HIT:     530995  MISS:     832393
LLC RFO       ACCESS:      12669  HIT:       2796  MISS:       9873
LLC PREFETCH  ACCESS:          0  HIT:          0  MISS:          0
LLC WRITEBACK ACCESS:     171100  HIT:     168704  MISS:       2396

*** ChampSim Multicore Out-of-Order Simulator ***

Warmup Instructions: 5000000
Simulation Instructions: 50000000
Configuration: 1
Number of CPUs: 1
LLC sets: 2048
LLC ways: 16
Off-chip DRAM Channels: 1 Width: 64-bit Data Rate: 1600 MT/s

CPU 0 runs /datasets/cs240c-wi22-a00-public/data/Assignment2-gz/astar_163B.trace.gz
Initialize LRU replacement state
Heartbeat CPU 0 instructions: 1000002 cycles: 530774 heartbeat IPC: 1.88404 cumulative IPC: 1.88404 (Simulation time: 0 hr 0 min 4 sec) 
Heartbeat CPU 0 instructions: 2000003 cycles: 1060018 heartbeat IPC: 1.88949 cumulative IPC: 1.88676 (Simulation time: 0 hr 0 min 7 sec) 
Heartbeat CPU 0 instructions: 3000002 cycles: 1589730 heartbeat IPC: 1.88782 cumulative IPC: 1.88711 (Simulation time: 0 hr 0 min 10 sec) 
Heartbeat CPU 0 instructions: 4000000 cycles: 2119462 heartbeat IPC: 1.88774 cumulative IPC: 1.88727 (Simulation time: 0 hr 0 min 13 sec) 
Heartbeat CPU 0 instructions: 5000000 cycles: 2651055 heartbeat IPC: 1.88114 cumulative IPC: 1.88604 (Simulation time: 0 hr 0 min 17 sec) 

Warmup complete CPU 0 instructions: 5000001 cycles: 2651058 (Simulation time: 0 hr 0 min 17 sec) 

Heartbeat CPU 0 instructions: 6000000 cycles: 4821725 heartbeat IPC: 0.460687 cumulative IPC: 0.460687 (Simulation time: 0 hr 0 min 20 sec) 
Heartbeat CPU 0 instructions: 7000001 cycles: 7001987 heartbeat IPC: 0.458661 cumulative IPC: 0.459672 (Simulation time: 0 hr 0 min 24 sec) 
Heartbeat CPU 0 instructions: 8000000 cycles: 9151283 heartbeat IPC: 0.465268 cumulative IPC: 0.461522 (Simulation time: 0 hr 0 min 28 sec) 
Heartbeat CPU 0 instructions: 9000000 cycles: 11336998 heartbeat IPC: 0.457516 cumulative IPC: 0.460514 (Simulation time: 0 hr 0 min 31 sec) 
Heartbeat CPU 0 instructions: 10000000 cycles: 13580678 heartbeat IPC: 0.445696 cumulative IPC: 0.457472 (Simulation time: 0 hr 0 min 35 sec) 
Heartbeat CPU 0 instructions: 11000003 cycles: 15832459 heartbeat IPC: 0.444094 cumulative IPC: 0.455187 (Simulation time: 0 hr 0 min 39 sec) 
Heartbeat CPU 0 instructions: 12000000 cycles: 18106287 heartbeat IPC: 0.439786 cumulative IPC: 0.452921 (Simulation time: 0 hr 0 min 42 sec) 
Heartbeat CPU 0 instructions: 13000000 cycles: 20397050 heartbeat IPC: 0.436536 cumulative IPC: 0.450806 (Simulation time: 0 hr 0 min 46 sec) 
Heartbeat CPU 0 instructions: 14000000 cycles: 22696513 heartbeat IPC: 0.434884 cumulative IPC: 0.44898 (Simulation time: 0 hr 0 min 50 sec) 
Heartbeat CPU 0 instructions: 15000000 cycles: 25056695 heartbeat IPC: 0.423696 cumulative IPC: 0.446316 (Simulation time: 0 hr 0 min 53 sec) 
Heartbeat CPU 0 instructions: 16000000 cycles: 27477826 heartbeat IPC: 0.41303 cumulative IPC: 0.44307 (Simulation time: 0 hr 0 min 56 sec) 
Heartbeat CPU 0 instructions: 17000003 cycles: 29847403 heartbeat IPC: 0.422018 cumulative IPC: 0.441236 (Simulation time: 0 hr 1 min 0 sec) 
Heartbeat CPU 0 instructions: 18000002 cycles: 32199981 heartbeat IPC: 0.425065 cumulative IPC: 0.439948 (Simulation time: 0 hr 1 min 3 sec) 
Heartbeat CPU 0 instructions: 19000000 cycles: 34540227 heartbeat IPC: 0.427305 cumulative IPC: 0.439021 (Simulation time: 0 hr 1 min 7 sec) 
Heartbeat CPU 0 instructions: 20000000 cycles: 36892145 heartbeat IPC: 0.425185 cumulative IPC: 0.43807 (Simulation time: 0 hr 1 min 10 sec) 
Heartbeat CPU 0 instructions: 21000003 cycles: 39294819 heartbeat IPC: 0.416204 cumulative IPC: 0.436636 (Simulation time: 0 hr 1 min 14 sec) 
Heartbeat CPU 0 instructions: 22000002 cycles: 41815160 heartbeat IPC: 0.396771 cumulative IPC: 0.434071 (Simulation time: 0 hr 1 min 17 sec) 
Heartbeat CPU 0 instructions: 23000001 cycles: 44300785 heartbeat IPC: 0.402313 cumulative IPC: 0.432176 (Simulation time: 0 hr 1 min 21 sec) 
Heartbeat CPU 0 instructions: 24000000 cycles: 46792790 heartbeat IPC: 0.401283 cumulative IPC: 0.430432 (Simulation time: 0 hr 1 min 24 sec) 
Heartbeat CPU 0 instructions: 25000003 cycles: 49008308 heartbeat IPC: 0.451363 cumulative IPC: 0.431432 (Simulation time: 0 hr 1 min 28 sec) 
Heartbeat CPU 0 instructions: 26000003 cycles: 50764987 heartbeat IPC: 0.569256 cumulative IPC: 0.436464 (Simulation time: 0 hr 1 min 31 sec) 
Heartbeat CPU 0 instructions: 27000000 cycles: 52597829 heartbeat IPC: 0.545599 cumulative IPC: 0.440469 (Simulation time: 0 hr 1 min 35 sec) 
Heartbeat CPU 0 instructions: 28000000 cycles: 54550675 heartbeat IPC: 0.512073 cumulative IPC: 0.443163 (Simulation time: 0 hr 1 min 38 sec) 
Heartbeat CPU 0 instructions: 29000000 cycles: 56493343 heartbeat IPC: 0.514756 cumulative IPC: 0.445746 (Simulation time: 0 hr 1 min 42 sec) 
Heartbeat CPU 0 instructions: 30000000 cycles: 58418320 heartbeat IPC: 0.519487 cumulative IPC: 0.448292 (Simulation time: 0 hr 1 min 45 sec) 
Heartbeat CPU 0 instructions: 31000001 cycles: 60287405 heartbeat IPC: 0.535022 cumulative IPC: 0.451104 (Simulation time: 0 hr 1 min 49 sec) 
Heartbeat CPU 0 instructions: 32000000 cycles: 62199474 heartbeat IPC: 0.522993 cumulative IPC: 0.453413 (Simulation time: 0 hr 1 min 53 sec) 
Heartbeat CPU 0 instructions: 33000000 cycles: 64091369 heartbeat IPC: 0.528571 cumulative IPC: 0.455727 (Simulation time: 0 hr 1 min 56 sec) 
Heartbeat CPU 0 instructions: 34000001 cycles: 65951548 heartbeat IPC: 0.537583 cumulative IPC: 0.458132 (Simulation time: 0 hr 2 min 0 sec) 
Heartbeat CPU 0 instructions: 35000001 cycles: 67810806 heartbeat IPC: 0.537849 cumulative IPC: 0.460407 (Simulation time: 0 hr 2 min 4 sec) 
Heartbeat CPU 0 instructions: 36000000 cycles: 69677774 heartbeat IPC: 0.535627 cumulative IPC: 0.462502 (Simulation time: 0 hr 2 min 7 sec) 
Heartbeat CPU 0 instructions: 37000000 cycles: 71593131 heartbeat IPC: 0.522096 cumulative IPC: 0.464158 (Simulation time: 0 hr 2 min 11 sec) 
Heartbeat CPU 0 instructions: 38000000 cycles: 73458923 heartbeat IPC: 0.535965 cumulative IPC: 0.46605 (Simulation time: 0 hr 2 min 15 sec) 
Heartbeat CPU 0 instructions: 39000001 cycles: 75285146 heartbeat IPC: 0.547579 cumulative IPC: 0.4681 (Simulation time: 0 hr 2 min 18 sec) 
Heartbeat CPU 0 instructions: 40000000 cycles: 77137701 heartbeat IPC: 0.539795 cumulative IPC: 0.469883 (Simulation time: 0 hr 2 min 22 sec) 
Heartbeat CPU 0 instructions: 41000001 cycles: 79035905 heartbeat IPC: 0.526814 cumulative IPC: 0.471298 (Simulation time: 0 hr 2 min 26 sec) 
Heartbeat CPU 0 instructions: 42000001 cycles: 80981645 heartbeat IPC: 0.513943 cumulative IPC: 0.472357 (Simulation time: 0 hr 2 min 29 sec) 
Heartbeat CPU 0 instructions: 43000001 cycles: 82963489 heartbeat IPC: 0.504581 cumulative IPC: 0.473152 (Simulation time: 0 hr 2 min 32 sec) 
Heartbeat CPU 0 instructions: 44000000 cycles: 84965496 heartbeat IPC: 0.499498 cumulative IPC: 0.473793 (Simulation time: 0 hr 2 min 36 sec) 
Heartbeat CPU 0 instructions: 45000000 cycles: 86964529 heartbeat IPC: 0.500242 cumulative IPC: 0.47442 (Simulation time: 0 hr 2 min 39 sec) 
Heartbeat CPU 0 instructions: 46000002 cycles: 88856347 heartbeat IPC: 0.528593 cumulative IPC: 0.475609 (Simulation time: 0 hr 2 min 43 sec) 
Heartbeat CPU 0 instructions: 47000000 cycles: 90749255 heartbeat IPC: 0.528287 cumulative IPC: 0.476741 (Simulation time: 0 hr 2 min 47 sec) 
Heartbeat CPU 0 instructions: 48000000 cycles: 92661772 heartbeat IPC: 0.522871 cumulative IPC: 0.477721 (Simulation time: 0 hr 2 min 50 sec) 
Heartbeat CPU 0 instructions: 49000003 cycles: 94610083 heartbeat IPC: 0.513267 cumulative IPC: 0.478474 (Simulation time: 0 hr 2 min 54 sec) 
Heartbeat CPU 0 instructions: 50000001 cycles: 96530319 heartbeat IPC: 0.520768 cumulative IPC: 0.479339 (Simulation time: 0 hr 2 min 58 sec) 
Heartbeat CPU 0 instructions: 51000003 cycles: 98469731 heartbeat IPC: 0.515621 cumulative IPC: 0.480073 (Simulation time: 0 hr 3 min 1 sec) 
Heartbeat CPU 0 instructions: 52000000 cycles: 100480701 heartbeat IPC: 0.497271 cumulative IPC: 0.480427 (Simulation time: 0 hr 3 min 5 sec) 
Heartbeat CPU 0 instructions: 53000001 cycles: 102440909 heartbeat IPC: 0.51015 cumulative IPC: 0.481011 (Simulation time: 0 hr 3 min 9 sec) 
Heartbeat CPU 0 instructions: 54000003 cycles: 104335834 heartbeat IPC: 0.527726 cumulative IPC: 0.481881 (Simulation time: 0 hr 3 min 13 sec) 
Heartbeat CPU 0 instructions: 55000000 cycles: 106205429 heartbeat IPC: 0.534874 cumulative IPC: 0.482838 (Simulation time: 0 hr 3 min 17 sec) 
Finished CPU 0 instructions: 50000000 cycles: 103554373 cummulative IPC: 0.482838 (Simulation time: 0 hr 3 min 17 sec) 

ChampSim completed all CPUs

Region of Interest Statistics

CPU 0 cummulative IPC: 0.482838 instructions: 50000000 cycles: 103554373
LLC TOTAL     ACCESS:     198671  HIT:     124245  MISS:      74426
LLC LOAD      ACCESS:      85810  HIT:      26990  MISS:      58820
LLC RFO       ACCESS:      32316  HIT:      16710  MISS:      15606
LLC PREFETCH  ACCESS:          0  HIT:          0  MISS:          0
LLC WRITEBACK ACCESS:      80545  HIT:      80545  MISS:          0

*** ChampSim Multicore Out-of-Order Simulator ***

Warmup Instructions: 5000000
Simulation Instructions: 50000000
Configuration: 1
Number of CPUs: 1
LLC sets: 2048
LLC ways: 16
Off-chip DRAM Channels: 1 Width: 64-bit Data Rate: 1600 MT/s

CPU 0 runs /datasets/cs240c-wi22-a00-public/data/Assignment2-gz/astar_23B.trace.gz
Initialize LRU replacement state
Heartbeat CPU 0 instructions: 1000000 cycles: 360104 heartbeat IPC: 2.77698 cumulative IPC: 2.77698 (Simulation time: 0 hr 0 min 2 sec) 
Heartbeat CPU 0 instructions: 2000001 cycles: 720986 heartbeat IPC: 2.77099 cumulative IPC: 2.77398 (Simulation time: 0 hr 0 min 5 sec) 
Heartbeat CPU 0 instructions: 3000000 cycles: 1079937 heartbeat IPC: 2.78589 cumulative IPC: 2.77794 (Simulation time: 0 hr 0 min 8 sec) 
Heartbeat CPU 0 instructions: 4000000 cycles: 1441398 heartbeat IPC: 2.76655 cumulative IPC: 2.77508 (Simulation time: 0 hr 0 min 11 sec) 
Heartbeat CPU 0 instructions: 5000000 cycles: 1803481 heartbeat IPC: 2.7618 cumulative IPC: 2.77242 (Simulation time: 0 hr 0 min 14 sec) 

Warmup complete CPU 0 instructions: 5000004 cycles: 1803482 (Simulation time: 0 hr 0 min 14 sec) 

Heartbeat CPU 0 instructions: 6000000 cycles: 4586357 heartbeat IPC: 0.35934 cumulative IPC: 0.359339 (Simulation time: 0 hr 0 min 17 sec) 
Heartbeat CPU 0 instructions: 7000000 cycles: 7710772 heartbeat IPC: 0.32006 cumulative IPC: 0.338564 (Simulation time: 0 hr 0 min 20 sec) 
Heartbeat CPU 0 instructions: 8000000 cycles: 10503501 heartbeat IPC: 0.358073 cumulative IPC: 0.344826 (Simulation time: 0 hr 0 min 23 sec) 
Heartbeat CPU 0 instructions: 9000000 cycles: 13309805 heartbeat IPC: 0.356341 cumulative IPC: 0.347635 (Simulation time: 0 hr 0 min 26 sec) 
Heartbeat CPU 0 instructions: 10000003 cycles: 16275363 heartbeat IPC: 0.337206 cumulative IPC: 0.345498 (Simulation time: 0 hr 0 min 29 sec) 
Heartbeat CPU 0 instructions: 11000000 cycles: 19449866 heartbeat IPC: 0.315009 cumulative IPC: 0.340013 (Simulation time: 0 hr 0 min 32 sec) 
Heartbeat CPU 0 instructions: 12000000 cycles: 22312067 heartbeat IPC: 0.349381 cumulative IPC: 0.34132 (Simulation time: 0 hr 0 min 35 sec) 
Heartbeat CPU 0 instructions: 13000002 cycles: 25035216 heartbeat IPC: 0.367223 cumulative IPC: 0.344356 (Simulation time: 0 hr 0 min 38 sec) 
Heartbeat CPU 0 instructions: 14000001 cycles: 28030915 heartbeat IPC: 0.333812 cumulative IPC: 0.343152 (Simulation time: 0 hr 0 min 40 sec) 
Heartbeat CPU 0 instructions: 15000000 cycles: 31322610 heartbeat IPC: 0.303795 cumulative IPC: 0.338763 (Simulation time: 0 hr 0 min 43 sec) 
Heartbeat CPU 0 instructions: 16000000 cycles: 34250664 heartbeat IPC: 0.341524 cumulative IPC: 0.339012 (Simulation time: 0 hr 0 min 46 sec) 
Heartbeat CPU 0 instructions: 17000002 cycles: 36976380 heartbeat IPC: 0.366877 cumulative IPC: 0.341172 (Simulation time: 0 hr 0 min 49 sec) 
Heartbeat CPU 0 instructions: 18000000 cycles: 39778238 heartbeat IPC: 0.356905 cumulative IPC: 0.342333 (Simulation time: 0 hr 0 min 52 sec) 
Heartbeat CPU 0 instructions: 19000000 cycles: 42695144 heartbeat IPC: 0.342829 cumulative IPC: 0.342368 (Simulation time: 0 hr 0 min 55 sec) 
Heartbeat CPU 0 instructions: 20000000 cycles: 45667325 heartbeat IPC: 0.336453 cumulative IPC: 0.341967 (Simulation time: 0 hr 0 min 58 sec) 
Heartbeat CPU 0 instructions: 21000001 cycles: 48700779 heartbeat IPC: 0.329658 cumulative IPC: 0.341171 (Simulation time: 0 hr 1 min 1 sec) 
Heartbeat CPU 0 instructions: 22000002 cycles: 51780022 heartbeat IPC: 0.324755 cumulative IPC: 0.34016 (Simulation time: 0 hr 1 min 4 sec) 
Heartbeat CPU 0 instructions: 23000003 cycles: 55099123 heartbeat IPC: 0.301287 cumulative IPC: 0.337739 (Simulation time: 0 hr 1 min 6 sec) 
Heartbeat CPU 0 instructions: 24000000 cycles: 58590913 heartbeat IPC: 0.286385 cumulative IPC: 0.334581 (Simulation time: 0 hr 1 min 9 sec) 
Heartbeat CPU 0 instructions: 25000000 cycles: 62445575 heartbeat IPC: 0.259426 cumulative IPC: 0.329804 (Simulation time: 0 hr 1 min 12 sec) 
Heartbeat CPU 0 instructions: 26000000 cycles: 66579440 heartbeat IPC: 0.241904 cumulative IPC: 0.324194 (Simulation time: 0 hr 1 min 15 sec) 
Heartbeat CPU 0 instructions: 27000000 cycles: 70540699 heartbeat IPC: 0.252445 cumulative IPC: 0.320059 (Simulation time: 0 hr 1 min 18 sec) 
Heartbeat CPU 0 instructions: 28000000 cycles: 74364192 heartbeat IPC: 0.261541 cumulative IPC: 0.316976 (Simulation time: 0 hr 1 min 21 sec) 
Heartbeat CPU 0 instructions: 29000000 cycles: 77883026 heartbeat IPC: 0.284185 cumulative IPC: 0.315459 (Simulation time: 0 hr 1 min 24 sec) 
Heartbeat CPU 0 instructions: 30000000 cycles: 81477605 heartbeat IPC: 0.278197 cumulative IPC: 0.313778 (Simulation time: 0 hr 1 min 27 sec) 
Heartbeat CPU 0 instructions: 31000001 cycles: 85129800 heartbeat IPC: 0.273808 cumulative IPC: 0.312026 (Simulation time: 0 hr 1 min 30 sec) 
Heartbeat CPU 0 instructions: 32000000 cycles: 88939755 heartbeat IPC: 0.26247 cumulative IPC: 0.309859 (Simulation time: 0 hr 1 min 33 sec) 
Heartbeat CPU 0 instructions: 33000001 cycles: 92962525 heartbeat IPC: 0.248585 cumulative IPC: 0.307155 (Simulation time: 0 hr 1 min 36 sec) 
Heartbeat CPU 0 instructions: 34000003 cycles: 97011969 heartbeat IPC: 0.246948 cumulative IPC: 0.304595 (Simulation time: 0 hr 1 min 39 sec) 
Heartbeat CPU 0 instructions: 35000003 cycles: 100931720 heartbeat IPC: 0.255118 cumulative IPC: 0.302638 (Simulation time: 0 hr 1 min 42 sec) 
Heartbeat CPU 0 instructions: 36000000 cycles: 105062110 heartbeat IPC: 0.242107 cumulative IPC: 0.300217 (Simulation time: 0 hr 1 min 45 sec) 
Heartbeat CPU 0 instructions: 37000000 cycles: 109343402 heartbeat IPC: 0.233574 cumulative IPC: 0.297564 (Simulation time: 0 hr 1 min 48 sec) 
Heartbeat CPU 0 instructions: 38000003 cycles: 113424082 heartbeat IPC: 0.245058 cumulative IPC: 0.295644 (Simulation time: 0 hr 1 min 51 sec) 
Heartbeat CPU 0 instructions: 39000000 cycles: 117373419 heartbeat IPC: 0.253206 cumulative IPC: 0.294194 (Simulation time: 0 hr 1 min 54 sec) 
Heartbeat CPU 0 instructions: 40000000 cycles: 121226038 heartbeat IPC: 0.259564 cumulative IPC: 0.293077 (Simulation time: 0 hr 1 min 57 sec) 
Heartbeat CPU 0 instructions: 41000003 cycles: 124979203 heartbeat IPC: 0.266443 cumulative IPC: 0.292265 (Simulation time: 0 hr 2 min 0 sec) 
Heartbeat CPU 0 instructions: 42000000 cycles: 128701118 heartbeat IPC: 0.268678 cumulative IPC: 0.291574 (Simulation time: 0 hr 2 min 3 sec) 
Heartbeat CPU 0 instructions: 43000000 cycles: 132045024 heartbeat IPC: 0.299051 cumulative IPC: 0.291766 (Simulation time: 0 hr 2 min 6 sec) 
Heartbeat CPU 0 instructions: 44000000 cycles: 135278046 heartbeat IPC: 0.309308 cumulative IPC: 0.29219 (Simulation time: 0 hr 2 min 9 sec) 
Heartbeat CPU 0 instructions: 45000001 cycles: 138641425 heartbeat IPC: 0.29732 cumulative IPC: 0.292317 (Simulation time: 0 hr 2 min 12 sec) 
Heartbeat CPU 0 instructions: 46000003 cycles: 141811925 heartbeat IPC: 0.315408 cumulative IPC: 0.292839 (Simulation time: 0 hr 2 min 15 sec) 
Heartbeat CPU 0 instructions: 47000002 cycles: 145064666 heartbeat IPC: 0.307433 cumulative IPC: 0.293171 (Simulation time: 0 hr 2 min 18 sec) 
Heartbeat CPU 0 instructions: 48000000 cycles: 148335896 heartbeat IPC: 0.305695 cumulative IPC: 0.29345 (Simulation time: 0 hr 2 min 21 sec) 
Heartbeat CPU 0 instructions: 49000003 cycles: 151712609 heartbeat IPC: 0.296147 cumulative IPC: 0.293511 (Simulation time: 0 hr 2 min 24 sec) 
Heartbeat CPU 0 instructions: 50000000 cycles: 154973956 heartbeat IPC: 0.306621 cumulative IPC: 0.29379 (Simulation time: 0 hr 2 min 27 sec) 
Heartbeat CPU 0 instructions: 51000001 cycles: 158858611 heartbeat IPC: 0.257423 cumulative IPC: 0.292891 (Simulation time: 0 hr 2 min 30 sec) 
Heartbeat CPU 0 instructions: 52000000 cycles: 162930301 heartbeat IPC: 0.245598 cumulative IPC: 0.291696 (Simulation time: 0 hr 2 min 33 sec) 
Heartbeat CPU 0 instructions: 53000000 cycles: 165853764 heartbeat IPC: 0.34206 cumulative IPC: 0.292593 (Simulation time: 0 hr 2 min 36 sec) 
Heartbeat CPU 0 instructions: 54000002 cycles: 168814048 heartbeat IPC: 0.337806 cumulative IPC: 0.293395 (Simulation time: 0 hr 2 min 39 sec) 
Heartbeat CPU 0 instructions: 55000002 cycles: 171818679 heartbeat IPC: 0.33282 cumulative IPC: 0.294091 (Simulation time: 0 hr 2 min 42 sec) 
Finished CPU 0 instructions: 50000002 cycles: 170015199 cummulative IPC: 0.294091 (Simulation time: 0 hr 2 min 42 sec) 

ChampSim completed all CPUs

Region of Interest Statistics

CPU 0 cummulative IPC: 0.294091 instructions: 50000002 cycles: 170015199
LLC TOTAL     ACCESS:    1481668  HIT:    1365468  MISS:     116200
LLC LOAD      ACCESS:    1091592  HIT:     975496  MISS:     116096
LLC RFO       ACCESS:      10047  HIT:       9951  MISS:         96
LLC PREFETCH  ACCESS:          0  HIT:          0  MISS:          0
LLC WRITEBACK ACCESS:     380029  HIT:     380021  MISS:          8

*** ChampSim Multicore Out-of-Order Simulator ***

Warmup Instructions: 5000000
Simulation Instructions: 50000000
Configuration: 1
Number of CPUs: 1
LLC sets: 2048
LLC ways: 16
Off-chip DRAM Channels: 1 Width: 64-bit Data Rate: 1600 MT/s

CPU 0 runs /datasets/cs240c-wi22-a00-public/data/Assignment2-gz/astar_313B.trace.gz
Initialize LRU replacement state
Heartbeat CPU 0 instructions: 1000001 cycles: 678651 heartbeat IPC: 1.47351 cumulative IPC: 1.47351 (Simulation time: 0 hr 0 min 5 sec) 
Heartbeat CPU 0 instructions: 2000003 cycles: 1269446 heartbeat IPC: 1.69264 cumulative IPC: 1.57549 (Simulation time: 0 hr 0 min 9 sec) 
Heartbeat CPU 0 instructions: 3000003 cycles: 1946813 heartbeat IPC: 1.4763 cumulative IPC: 1.54098 (Simulation time: 0 hr 0 min 13 sec) 
Heartbeat CPU 0 instructions: 4000000 cycles: 2624787 heartbeat IPC: 1.47498 cumulative IPC: 1.52393 (Simulation time: 0 hr 0 min 17 sec) 
Heartbeat CPU 0 instructions: 5000002 cycles: 3302583 heartbeat IPC: 1.47537 cumulative IPC: 1.51397 (Simulation time: 0 hr 0 min 21 sec) 

Warmup complete CPU 0 instructions: 5000002 cycles: 3302583 (Simulation time: 0 hr 0 min 21 sec) 

Heartbeat CPU 0 instructions: 6000001 cycles: 14044375 heartbeat IPC: 0.0930942 cumulative IPC: 0.0930942 (Simulation time: 0 hr 0 min 27 sec) 
Heartbeat CPU 0 instructions: 7000003 cycles: 25737156 heartbeat IPC: 0.085523 cumulative IPC: 0.0891482 (Simulation time: 0 hr 0 min 33 sec) 
Heartbeat CPU 0 instructions: 8000000 cycles: 38144436 heartbeat IPC: 0.0805976 cumulative IPC: 0.0861033 (Simulation time: 0 hr 0 min 40 sec) 
Heartbeat CPU 0 instructions: 9000001 cycles: 49461511 heartbeat IPC: 0.0883621 cumulative IPC: 0.0866571 (Simulation time: 0 hr 0 min 46 sec) 
Heartbeat CPU 0 instructions: 10000002 cycles: 57237815 heartbeat IPC: 0.128596 cumulative IPC: 0.0927038 (Simulation time: 0 hr 0 min 51 sec) 
Heartbeat CPU 0 instructions: 11000000 cycles: 65066818 heartbeat IPC: 0.12773 cumulative IPC: 0.0971436 (Simulation time: 0 hr 0 min 55 sec) 
Heartbeat CPU 0 instructions: 12000000 cycles: 73189806 heartbeat IPC: 0.123107 cumulative IPC: 0.100161 (Simulation time: 0 hr 1 min 0 sec) 
Heartbeat CPU 0 instructions: 13000003 cycles: 83633557 heartbeat IPC: 0.0957513 cumulative IPC: 0.099588 (Simulation time: 0 hr 1 min 6 sec) 
Heartbeat CPU 0 instructions: 14000002 cycles: 91448602 heartbeat IPC: 0.127958 cumulative IPC: 0.102103 (Simulation time: 0 hr 1 min 10 sec) 
Heartbeat CPU 0 instructions: 15000000 cycles: 99340473 heartbeat IPC: 0.126712 cumulative IPC: 0.104126 (Simulation time: 0 hr 1 min 15 sec) 
Heartbeat CPU 0 instructions: 16000000 cycles: 107139416 heartbeat IPC: 0.128223 cumulative IPC: 0.105935 (Simulation time: 0 hr 1 min 20 sec) 
Heartbeat CPU 0 instructions: 17000001 cycles: 114817602 heartbeat IPC: 0.130239 cumulative IPC: 0.107609 (Simulation time: 0 hr 1 min 25 sec) 
Heartbeat CPU 0 instructions: 18000000 cycles: 125342663 heartbeat IPC: 0.0950112 cumulative IPC: 0.106522 (Simulation time: 0 hr 1 min 30 sec) 
Heartbeat CPU 0 instructions: 19000000 cycles: 132893433 heartbeat IPC: 0.132437 cumulative IPC: 0.108032 (Simulation time: 0 hr 1 min 35 sec) 
Heartbeat CPU 0 instructions: 20000000 cycles: 140866401 heartbeat IPC: 0.125424 cumulative IPC: 0.10904 (Simulation time: 0 hr 1 min 39 sec) 
Heartbeat CPU 0 instructions: 21000003 cycles: 151011269 heartbeat IPC: 0.0985723 cumulative IPC: 0.108321 (Simulation time: 0 hr 1 min 44 sec) 
Heartbeat CPU 0 instructions: 22000002 cycles: 159614021 heartbeat IPC: 0.116242 cumulative IPC: 0.108757 (Simulation time: 0 hr 1 min 49 sec) 
Heartbeat CPU 0 instructions: 23000002 cycles: 167183994 heartbeat IPC: 0.132101 cumulative IPC: 0.109836 (Simulation time: 0 hr 1 min 54 sec) 
Heartbeat CPU 0 instructions: 24000000 cycles: 175479080 heartbeat IPC: 0.120553 cumulative IPC: 0.110352 (Simulation time: 0 hr 1 min 58 sec) 
Heartbeat CPU 0 instructions: 25000001 cycles: 185274929 heartbeat IPC: 0.102084 cumulative IPC: 0.109907 (Simulation time: 0 hr 2 min 4 sec) 
Heartbeat CPU 0 instructions: 26000002 cycles: 193259295 heartbeat IPC: 0.125245 cumulative IPC: 0.110552 (Simulation time: 0 hr 2 min 8 sec) 
Heartbeat CPU 0 instructions: 27000003 cycles: 204403553 heartbeat IPC: 0.0897324 cumulative IPC: 0.109398 (Simulation time: 0 hr 2 min 14 sec) 
Heartbeat CPU 0 instructions: 28000000 cycles: 212085902 heartbeat IPC: 0.130168 cumulative IPC: 0.110162 (Simulation time: 0 hr 2 min 18 sec) 
Heartbeat CPU 0 instructions: 29000001 cycles: 222586825 heartbeat IPC: 0.0952298 cumulative IPC: 0.109447 (Simulation time: 0 hr 2 min 24 sec) 
Heartbeat CPU 0 instructions: 30000001 cycles: 230034724 heartbeat IPC: 0.134266 cumulative IPC: 0.110262 (Simulation time: 0 hr 2 min 29 sec) 
Heartbeat CPU 0 instructions: 31000002 cycles: 237464880 heartbeat IPC: 0.134587 cumulative IPC: 0.111034 (Simulation time: 0 hr 2 min 33 sec) 
Heartbeat CPU 0 instructions: 32000000 cycles: 244641296 heartbeat IPC: 0.139345 cumulative IPC: 0.111876 (Simulation time: 0 hr 2 min 37 sec) 
Heartbeat CPU 0 instructions: 33000000 cycles: 251609353 heartbeat IPC: 0.143512 cumulative IPC: 0.112764 (Simulation time: 0 hr 2 min 42 sec) 
Heartbeat CPU 0 instructions: 34000000 cycles: 262097198 heartbeat IPC: 0.0953485 cumulative IPC: 0.112058 (Simulation time: 0 hr 2 min 47 sec) 
Heartbeat CPU 0 instructions: 35000000 cycles: 269812797 heartbeat IPC: 0.129608 cumulative IPC: 0.112566 (Simulation time: 0 hr 2 min 52 sec) 
Heartbeat CPU 0 instructions: 36000000 cycles: 277656242 heartbeat IPC: 0.127495 cumulative IPC: 0.112993 (Simulation time: 0 hr 2 min 56 sec) 
Heartbeat CPU 0 instructions: 37000002 cycles: 288312872 heartbeat IPC: 0.0938385 cumulative IPC: 0.112277 (Simulation time: 0 hr 3 min 1 sec) 
Heartbeat CPU 0 instructions: 38000000 cycles: 295756640 heartbeat IPC: 0.13434 cumulative IPC: 0.112838 (Simulation time: 0 hr 3 min 5 sec) 
Heartbeat CPU 0 instructions: 39000001 cycles: 306324079 heartbeat IPC: 0.0946304 cumulative IPC: 0.112203 (Simulation time: 0 hr 3 min 11 sec) 
Heartbeat CPU 0 instructions: 40000000 cycles: 316790977 heartbeat IPC: 0.0955392 cumulative IPC: 0.111647 (Simulation time: 0 hr 3 min 16 sec) 
Heartbeat CPU 0 instructions: 41000001 cycles: 324379472 heartbeat IPC: 0.131779 cumulative IPC: 0.112123 (Simulation time: 0 hr 3 min 21 sec) 
Heartbeat CPU 0 instructions: 42000003 cycles: 332681389 heartbeat IPC: 0.120454 cumulative IPC: 0.112333 (Simulation time: 0 hr 3 min 25 sec) 
Heartbeat CPU 0 instructions: 43000000 cycles: 343704649 heartbeat IPC: 0.090717 cumulative IPC: 0.111633 (Simulation time: 0 hr 3 min 30 sec) 
Heartbeat CPU 0 instructions: 44000000 cycles: 351280253 heartbeat IPC: 0.132003 cumulative IPC: 0.112076 (Simulation time: 0 hr 3 min 35 sec) 
Heartbeat CPU 0 instructions: 45000000 cycles: 359255191 heartbeat IPC: 0.125393 cumulative IPC: 0.112375 (Simulation time: 0 hr 3 min 39 sec) 
Heartbeat CPU 0 instructions: 46000002 cycles: 367365105 heartbeat IPC: 0.123306 cumulative IPC: 0.112618 (Simulation time: 0 hr 3 min 43 sec) 
Heartbeat CPU 0 instructions: 47000000 cycles: 375471368 heartbeat IPC: 0.123361 cumulative IPC: 0.112852 (Simulation time: 0 hr 3 min 48 sec) 
Heartbeat CPU 0 instructions: 48000000 cycles: 386016678 heartbeat IPC: 0.0948289 cumulative IPC: 0.112355 (Simulation time: 0 hr 3 min 53 sec) 
Heartbeat CPU 0 instructions: 49000000 cycles: 393457695 heartbeat IPC: 0.13439 cumulative IPC: 0.112776 (Simulation time: 0 hr 3 min 57 sec) 
Heartbeat CPU 0 instructions: 50000000 cycles: 401022342 heartbeat IPC: 0.132194 cumulative IPC: 0.113145 (Simulation time: 0 hr 4 min 1 sec) 
Heartbeat CPU 0 instructions: 51000000 cycles: 409237901 heartbeat IPC: 0.12172 cumulative IPC: 0.113319 (Simulation time: 0 hr 4 min 6 sec) 
Heartbeat CPU 0 instructions: 52000000 cycles: 419160867 heartbeat IPC: 0.100776 cumulative IPC: 0.113019 (Simulation time: 0 hr 4 min 11 sec) 
Heartbeat CPU 0 instructions: 53000000 cycles: 427106498 heartbeat IPC: 0.125855 cumulative IPC: 0.11326 (Simulation time: 0 hr 4 min 15 sec) 
Heartbeat CPU 0 instructions: 54000000 cycles: 435721771 heartbeat IPC: 0.116073 cumulative IPC: 0.113316 (Simulation time: 0 hr 4 min 20 sec) 
Heartbeat CPU 0 instructions: 55000001 cycles: 444536875 heartbeat IPC: 0.113442 cumulative IPC: 0.113318 (Simulation time: 0 hr 4 min 24 sec) 
Finished CPU 0 instructions: 50000000 cycles: 441234295 cummulative IPC: 0.113318 (Simulation time: 0 hr 4 min 24 sec) 

ChampSim completed all CPUs

Region of Interest Statistics

CPU 0 cummulative IPC: 0.113318 instructions: 50000000 cycles: 441234295
LLC TOTAL     ACCESS:    4073915  HIT:    1783118  MISS:    2290797
LLC LOAD      ACCESS:    1208957  HIT:      50405  MISS:    1158552
LLC RFO       ACCESS:    1207737  HIT:      76496  MISS:    1131241
LLC PREFETCH  ACCESS:          0  HIT:          0  MISS:          0
LLC WRITEBACK ACCESS:    1657221  HIT:    1656217  MISS:       1004

*** ChampSim Multicore Out-of-Order Simulator ***

Warmup Instructions: 5000000
Simulation Instructions: 50000000
Configuration: 1
Number of CPUs: 1
LLC sets: 2048
LLC ways: 16
Off-chip DRAM Channels: 1 Width: 64-bit Data Rate: 1600 MT/s

CPU 0 runs /datasets/cs240c-wi22-a00-public/data/Assignment2-gz/bzip2_183B.trace.gz
Initialize LRU replacement state
Heartbeat CPU 0 instructions: 1000000 cycles: 448069 heartbeat IPC: 2.2318 cumulative IPC: 2.2318 (Simulation time: 0 hr 0 min 4 sec) 
Heartbeat CPU 0 instructions: 2000001 cycles: 951159 heartbeat IPC: 1.98772 cumulative IPC: 2.1027 (Simulation time: 0 hr 0 min 7 sec) 
Heartbeat CPU 0 instructions: 3000001 cycles: 1457648 heartbeat IPC: 1.97438 cumulative IPC: 2.05811 (Simulation time: 0 hr 0 min 10 sec) 
Heartbeat CPU 0 instructions: 4000000 cycles: 1928242 heartbeat IPC: 2.12497 cumulative IPC: 2.07443 (Simulation time: 0 hr 0 min 13 sec) 
Heartbeat CPU 0 instructions: 5000000 cycles: 2425411 heartbeat IPC: 2.01139 cumulative IPC: 2.06151 (Simulation time: 0 hr 0 min 16 sec) 

Warmup complete CPU 0 instructions: 5000004 cycles: 2425412 (Simulation time: 0 hr 0 min 16 sec) 

Heartbeat CPU 0 instructions: 6000001 cycles: 3900226 heartbeat IPC: 0.678052 cumulative IPC: 0.67805 (Simulation time: 0 hr 0 min 19 sec) 
Heartbeat CPU 0 instructions: 7000001 cycles: 5480177 heartbeat IPC: 0.632931 cumulative IPC: 0.654714 (Simulation time: 0 hr 0 min 22 sec) 
Heartbeat CPU 0 instructions: 8000000 cycles: 6703990 heartbeat IPC: 0.817118 cumulative IPC: 0.701167 (Simulation time: 0 hr 0 min 25 sec) 
Heartbeat CPU 0 instructions: 9000003 cycles: 8003687 heartbeat IPC: 0.769412 cumulative IPC: 0.717067 (Simulation time: 0 hr 0 min 27 sec) 
Heartbeat CPU 0 instructions: 10000000 cycles: 9322277 heartbeat IPC: 0.758384 cumulative IPC: 0.724966 (Simulation time: 0 hr 0 min 30 sec) 
Heartbeat CPU 0 instructions: 11000000 cycles: 10876534 heartbeat IPC: 0.643394 cumulative IPC: 0.709964 (Simulation time: 0 hr 0 min 33 sec) 
Heartbeat CPU 0 instructions: 12000000 cycles: 12373069 heartbeat IPC: 0.66821 cumulative IPC: 0.703683 (Simulation time: 0 hr 0 min 36 sec) 
Heartbeat CPU 0 instructions: 13000000 cycles: 13603598 heartbeat IPC: 0.812659 cumulative IPC: 0.715679 (Simulation time: 0 hr 0 min 39 sec) 
Heartbeat CPU 0 instructions: 14000003 cycles: 14673757 heartbeat IPC: 0.934443 cumulative IPC: 0.734793 (Simulation time: 0 hr 0 min 42 sec) 
Heartbeat CPU 0 instructions: 15000000 cycles: 16080249 heartbeat IPC: 0.710987 cumulative IPC: 0.732341 (Simulation time: 0 hr 0 min 45 sec) 
Heartbeat CPU 0 instructions: 16000000 cycles: 17066440 heartbeat IPC: 1.014 cumulative IPC: 0.751313 (Simulation time: 0 hr 0 min 48 sec) 
Heartbeat CPU 0 instructions: 17000003 cycles: 17998056 heartbeat IPC: 1.07341 cumulative IPC: 0.770582 (Simulation time: 0 hr 0 min 51 sec) 
Heartbeat CPU 0 instructions: 18000001 cycles: 18926309 heartbeat IPC: 1.07729 cumulative IPC: 0.787836 (Simulation time: 0 hr 0 min 53 sec) 
Heartbeat CPU 0 instructions: 19000002 cycles: 19886040 heartbeat IPC: 1.04196 cumulative IPC: 0.801804 (Simulation time: 0 hr 0 min 56 sec) 
Heartbeat CPU 0 instructions: 20000000 cycles: 21101382 heartbeat IPC: 0.822812 cumulative IPC: 0.803171 (Simulation time: 0 hr 0 min 59 sec) 
Heartbeat CPU 0 instructions: 21000000 cycles: 22621224 heartbeat IPC: 0.657963 cumulative IPC: 0.792243 (Simulation time: 0 hr 1 min 2 sec) 
Heartbeat CPU 0 instructions: 22000000 cycles: 24072113 heartbeat IPC: 0.689233 cumulative IPC: 0.785339 (Simulation time: 0 hr 1 min 4 sec) 
Heartbeat CPU 0 instructions: 23000002 cycles: 25263094 heartbeat IPC: 0.839646 cumulative IPC: 0.788171 (Simulation time: 0 hr 1 min 7 sec) 
Heartbeat CPU 0 instructions: 24000000 cycles: 26507982 heartbeat IPC: 0.803284 cumulative IPC: 0.788952 (Simulation time: 0 hr 1 min 10 sec) 
Heartbeat CPU 0 instructions: 25000001 cycles: 27878084 heartbeat IPC: 0.729873 cumulative IPC: 0.785772 (Simulation time: 0 hr 1 min 13 sec) 
Heartbeat CPU 0 instructions: 26000002 cycles: 28859115 heartbeat IPC: 1.01934 cumulative IPC: 0.79444 (Simulation time: 0 hr 1 min 15 sec) 
Heartbeat CPU 0 instructions: 27000000 cycles: 29873698 heartbeat IPC: 0.985625 cumulative IPC: 0.801507 (Simulation time: 0 hr 1 min 18 sec) 
Heartbeat CPU 0 instructions: 28000000 cycles: 31213311 heartbeat IPC: 0.746484 cumulative IPC: 0.798947 (Simulation time: 0 hr 1 min 20 sec) 
Heartbeat CPU 0 instructions: 29000003 cycles: 32280252 heartbeat IPC: 0.937262 cumulative IPC: 0.80389 (Simulation time: 0 hr 1 min 23 sec) 
Heartbeat CPU 0 instructions: 30000000 cycles: 33637017 heartbeat IPC: 0.737045 cumulative IPC: 0.800984 (Simulation time: 0 hr 1 min 26 sec) 
Heartbeat CPU 0 instructions: 31000000 cycles: 34989120 heartbeat IPC: 0.739589 cumulative IPC: 0.798435 (Simulation time: 0 hr 1 min 28 sec) 
Heartbeat CPU 0 instructions: 32000000 cycles: 36652246 heartbeat IPC: 0.601277 cumulative IPC: 0.788855 (Simulation time: 0 hr 1 min 31 sec) 
Heartbeat CPU 0 instructions: 33000000 cycles: 37773977 heartbeat IPC: 0.891479 cumulative IPC: 0.792111 (Simulation time: 0 hr 1 min 34 sec) 
Heartbeat CPU 0 instructions: 34000001 cycles: 38776628 heartbeat IPC: 0.997357 cumulative IPC: 0.797772 (Simulation time: 0 hr 1 min 36 sec) 
Heartbeat CPU 0 instructions: 35000000 cycles: 39797026 heartbeat IPC: 0.980009 cumulative IPC: 0.802748 (Simulation time: 0 hr 1 min 39 sec) 
Heartbeat CPU 0 instructions: 36000000 cycles: 40831093 heartbeat IPC: 0.967055 cumulative IPC: 0.807172 (Simulation time: 0 hr 1 min 42 sec) 
Heartbeat CPU 0 instructions: 37000003 cycles: 42146800 heartbeat IPC: 0.76005 cumulative IPC: 0.805611 (Simulation time: 0 hr 1 min 44 sec) 
Heartbeat CPU 0 instructions: 38000001 cycles: 43728459 heartbeat IPC: 0.632246 cumulative IPC: 0.798972 (Simulation time: 0 hr 1 min 47 sec) 
Heartbeat CPU 0 instructions: 39000002 cycles: 44868025 heartbeat IPC: 0.877528 cumulative IPC: 0.801082 (Simulation time: 0 hr 1 min 50 sec) 
Heartbeat CPU 0 instructions: 40000000 cycles: 45937594 heartbeat IPC: 0.934954 cumulative IPC: 0.804372 (Simulation time: 0 hr 1 min 52 sec) 
Heartbeat CPU 0 instructions: 41000002 cycles: 47449248 heartbeat IPC: 0.661528 cumulative IPC: 0.799576 (Simulation time: 0 hr 1 min 55 sec) 
Heartbeat CPU 0 instructions: 42000000 cycles: 48763917 heartbeat IPC: 0.760646 cumulative IPC: 0.798472 (Simulation time: 0 hr 1 min 57 sec) 
Heartbeat CPU 0 instructions: 43000001 cycles: 49957807 heartbeat IPC: 0.837599 cumulative IPC: 0.799455 (Simulation time: 0 hr 2 min 0 sec) 
Heartbeat CPU 0 instructions: 44000000 cycles: 51143198 heartbeat IPC: 0.843603 cumulative IPC: 0.800529 (Simulation time: 0 hr 2 min 3 sec) 
Heartbeat CPU 0 instructions: 45000000 cycles: 52274341 heartbeat IPC: 0.884062 cumulative IPC: 0.802424 (Simulation time: 0 hr 2 min 5 sec) 
Heartbeat CPU 0 instructions: 46000000 cycles: 53402442 heartbeat IPC: 0.886445 cumulative IPC: 0.804284 (Simulation time: 0 hr 2 min 8 sec) 
Heartbeat CPU 0 instructions: 47000003 cycles: 54409899 heartbeat IPC: 0.992601 cumulative IPC: 0.807933 (Simulation time: 0 hr 2 min 11 sec) 
Heartbeat CPU 0 instructions: 48000000 cycles: 56074464 heartbeat IPC: 0.600756 cumulative IPC: 0.801505 (Simulation time: 0 hr 2 min 13 sec) 
Heartbeat CPU 0 instructions: 49000003 cycles: 57705895 heartbeat IPC: 0.612961 cumulative IPC: 0.795941 (Simulation time: 0 hr 2 min 16 sec) 
Heartbeat CPU 0 instructions: 50000000 cycles: 58906201 heartbeat IPC: 0.833118 cumulative IPC: 0.796731 (Simulation time: 0 hr 2 min 18 sec) 
Heartbeat CPU 0 instructions: 51000000 cycles: 59937035 heartbeat IPC: 0.970088 cumulative IPC: 0.799838 (Simulation time: 0 hr 2 min 21 sec) 
Heartbeat CPU 0 instructions: 52000000 cycles: 60967869 heartbeat IPC: 0.970088 cumulative IPC: 0.802836 (Simulation time: 0 hr 2 min 24 sec) 
Heartbeat CPU 0 instructions: 53000001 cycles: 62009159 heartbeat IPC: 0.960348 cumulative IPC: 0.805589 (Simulation time: 0 hr 2 min 26 sec) 
Heartbeat CPU 0 instructions: 54000001 cycles: 63024926 heartbeat IPC: 0.984478 cumulative IPC: 0.808587 (Simulation time: 0 hr 2 min 29 sec) 
Heartbeat CPU 0 instructions: 55000001 cycles: 64344518 heartbeat IPC: 0.75781 cumulative IPC: 0.807505 (Simulation time: 0 hr 2 min 32 sec) 
Finished CPU 0 instructions: 50000003 cycles: 61919127 cummulative IPC: 0.807505 (Simulation time: 0 hr 2 min 32 sec) 

ChampSim completed all CPUs

Region of Interest Statistics

CPU 0 cummulative IPC: 0.807505 instructions: 50000003 cycles: 61919127
LLC TOTAL     ACCESS:     460289  HIT:     399164  MISS:      61125
LLC LOAD      ACCESS:     212172  HIT:     181703  MISS:      30469
LLC RFO       ACCESS:     116152  HIT:      85496  MISS:      30656
LLC PREFETCH  ACCESS:          0  HIT:          0  MISS:          0
LLC WRITEBACK ACCESS:     131965  HIT:     131965  MISS:          0

*** ChampSim Multicore Out-of-Order Simulator ***

Warmup Instructions: 5000000
Simulation Instructions: 50000000
Configuration: 1
Number of CPUs: 1
LLC sets: 2048
LLC ways: 16
Off-chip DRAM Channels: 1 Width: 64-bit Data Rate: 1600 MT/s

CPU 0 runs /datasets/cs240c-wi22-a00-public/data/Assignment2-gz/bzip2_259B.trace.gz
Initialize LRU replacement state
Heartbeat CPU 0 instructions: 1000002 cycles: 428954 heartbeat IPC: 2.33126 cumulative IPC: 2.33126 (Simulation time: 0 hr 0 min 3 sec) 
Heartbeat CPU 0 instructions: 2000003 cycles: 861405 heartbeat IPC: 2.3124 cumulative IPC: 2.32179 (Simulation time: 0 hr 0 min 6 sec) 
Heartbeat CPU 0 instructions: 3000001 cycles: 1287146 heartbeat IPC: 2.34884 cumulative IPC: 2.33074 (Simulation time: 0 hr 0 min 9 sec) 
Heartbeat CPU 0 instructions: 4000000 cycles: 1685678 heartbeat IPC: 2.50921 cumulative IPC: 2.37293 (Simulation time: 0 hr 0 min 11 sec) 
Heartbeat CPU 0 instructions: 5000001 cycles: 2104126 heartbeat IPC: 2.38979 cumulative IPC: 2.37628 (Simulation time: 0 hr 0 min 14 sec) 

Warmup complete CPU 0 instructions: 5000001 cycles: 2104126 (Simulation time: 0 hr 0 min 14 sec) 

Heartbeat CPU 0 instructions: 6000002 cycles: 3131508 heartbeat IPC: 0.973349 cumulative IPC: 0.973349 (Simulation time: 0 hr 0 min 17 sec) 
Heartbeat CPU 0 instructions: 7000003 cycles: 4155251 heartbeat IPC: 0.976809 cumulative IPC: 0.975076 (Simulation time: 0 hr 0 min 20 sec) 
Heartbeat CPU 0 instructions: 8000000 cycles: 5218976 heartbeat IPC: 0.94009 cumulative IPC: 0.963128 (Simulation time: 0 hr 0 min 23 sec) 
Heartbeat CPU 0 instructions: 9000000 cycles: 6244656 heartbeat IPC: 0.974963 cumulative IPC: 0.96606 (Simulation time: 0 hr 0 min 26 sec) 
Heartbeat CPU 0 instructions: 10000000 cycles: 7102504 heartbeat IPC: 1.16571 cumulative IPC: 1.00032 (Simulation time: 0 hr 0 min 28 sec) 
Heartbeat CPU 0 instructions: 11000002 cycles: 8083753 heartbeat IPC: 1.01911 cumulative IPC: 1.00341 (Simulation time: 0 hr 0 min 31 sec) 
Heartbeat CPU 0 instructions: 12000000 cycles: 9729385 heartbeat IPC: 0.607668 cumulative IPC: 0.918001 (Simulation time: 0 hr 0 min 35 sec) 
Heartbeat CPU 0 instructions: 13000002 cycles: 11267414 heartbeat IPC: 0.650184 cumulative IPC: 0.873049 (Simulation time: 0 hr 0 min 39 sec) 
Heartbeat CPU 0 instructions: 14000002 cycles: 12607341 heartbeat IPC: 0.746309 cumulative IPC: 0.856881 (Simulation time: 0 hr 0 min 42 sec) 
Heartbeat CPU 0 instructions: 15000002 cycles: 14018166 heartbeat IPC: 0.708805 cumulative IPC: 0.839346 (Simulation time: 0 hr 0 min 45 sec) 
Heartbeat CPU 0 instructions: 16000000 cycles: 15479877 heartbeat IPC: 0.684128 cumulative IPC: 0.822384 (Simulation time: 0 hr 0 min 49 sec) 
Heartbeat CPU 0 instructions: 17000002 cycles: 17012558 heartbeat IPC: 0.652453 cumulative IPC: 0.804914 (Simulation time: 0 hr 0 min 52 sec) 
Heartbeat CPU 0 instructions: 18000001 cycles: 18367331 heartbeat IPC: 0.73813 cumulative IPC: 0.79935 (Simulation time: 0 hr 0 min 56 sec) 
Heartbeat CPU 0 instructions: 19000003 cycles: 19578740 heartbeat IPC: 0.825487 cumulative IPC: 0.801162 (Simulation time: 0 hr 0 min 59 sec) 
Heartbeat CPU 0 instructions: 20000000 cycles: 20748016 heartbeat IPC: 0.855228 cumulative IPC: 0.804553 (Simulation time: 0 hr 1 min 2 sec) 
Heartbeat CPU 0 instructions: 21000000 cycles: 21888216 heartbeat IPC: 0.877039 cumulative IPC: 0.808731 (Simulation time: 0 hr 1 min 5 sec) 
Heartbeat CPU 0 instructions: 22000003 cycles: 23041332 heartbeat IPC: 0.867218 cumulative IPC: 0.811952 (Simulation time: 0 hr 1 min 8 sec) 
Heartbeat CPU 0 instructions: 23000002 cycles: 24203269 heartbeat IPC: 0.860631 cumulative IPC: 0.814511 (Simulation time: 0 hr 1 min 11 sec) 
Heartbeat CPU 0 instructions: 24000000 cycles: 25380489 heartbeat IPC: 0.849457 cumulative IPC: 0.816279 (Simulation time: 0 hr 1 min 14 sec) 
Heartbeat CPU 0 instructions: 25000000 cycles: 26558002 heartbeat IPC: 0.849248 cumulative IPC: 0.817866 (Simulation time: 0 hr 1 min 16 sec) 
Heartbeat CPU 0 instructions: 26000000 cycles: 27790497 heartbeat IPC: 0.811362 cumulative IPC: 0.817554 (Simulation time: 0 hr 1 min 19 sec) 
Heartbeat CPU 0 instructions: 27000003 cycles: 28984666 heartbeat IPC: 0.837405 cumulative IPC: 0.818436 (Simulation time: 0 hr 1 min 22 sec) 
Heartbeat CPU 0 instructions: 28000000 cycles: 30060424 heartbeat IPC: 0.929574 cumulative IPC: 0.822713 (Simulation time: 0 hr 1 min 25 sec) 
Heartbeat CPU 0 instructions: 29000000 cycles: 31096253 heartbeat IPC: 0.96541 cumulative IPC: 0.827811 (Simulation time: 0 hr 1 min 28 sec) 
Heartbeat CPU 0 instructions: 30000001 cycles: 32245377 heartbeat IPC: 0.870229 cumulative IPC: 0.829428 (Simulation time: 0 hr 1 min 31 sec) 
Heartbeat CPU 0 instructions: 31000002 cycles: 33354225 heartbeat IPC: 0.901838 cumulative IPC: 0.831997 (Simulation time: 0 hr 1 min 34 sec) 
Heartbeat CPU 0 instructions: 32000000 cycles: 34534280 heartbeat IPC: 0.847416 cumulative IPC: 0.832558 (Simulation time: 0 hr 1 min 37 sec) 
Heartbeat CPU 0 instructions: 33000002 cycles: 36006642 heartbeat IPC: 0.679182 cumulative IPC: 0.825897 (Simulation time: 0 hr 1 min 40 sec) 
Heartbeat CPU 0 instructions: 34000003 cycles: 37595621 heartbeat IPC: 0.629336 cumulative IPC: 0.817097 (Simulation time: 0 hr 1 min 43 sec) 
Heartbeat CPU 0 instructions: 35000001 cycles: 38820891 heartbeat IPC: 0.816145 cumulative IPC: 0.817065 (Simulation time: 0 hr 1 min 46 sec) 
Heartbeat CPU 0 instructions: 36000000 cycles: 40093718 heartbeat IPC: 0.785652 cumulative IPC: 0.816013 (Simulation time: 0 hr 1 min 49 sec) 
Heartbeat CPU 0 instructions: 37000002 cycles: 41137814 heartbeat IPC: 0.957768 cumulative IPC: 0.819805 (Simulation time: 0 hr 1 min 52 sec) 
Heartbeat CPU 0 instructions: 38000003 cycles: 42263388 heartbeat IPC: 0.888436 cumulative IPC: 0.821728 (Simulation time: 0 hr 1 min 55 sec) 
Heartbeat CPU 0 instructions: 39000001 cycles: 43407549 heartbeat IPC: 0.874001 cumulative IPC: 0.823176 (Simulation time: 0 hr 1 min 57 sec) 
Heartbeat CPU 0 instructions: 40000000 cycles: 44486917 heartbeat IPC: 0.926467 cumulative IPC: 0.825807 (Simulation time: 0 hr 2 min 0 sec) 
Heartbeat CPU 0 instructions: 41000001 cycles: 45677879 heartbeat IPC: 0.839658 cumulative IPC: 0.826185 (Simulation time: 0 hr 2 min 3 sec) 
Heartbeat CPU 0 instructions: 42000000 cycles: 46897403 heartbeat IPC: 0.819991 cumulative IPC: 0.826017 (Simulation time: 0 hr 2 min 5 sec) 
Heartbeat CPU 0 instructions: 43000003 cycles: 48114496 heartbeat IPC: 0.821632 cumulative IPC: 0.825901 (Simulation time: 0 hr 2 min 8 sec) 
Heartbeat CPU 0 instructions: 44000000 cycles: 49336411 heartbeat IPC: 0.818385 cumulative IPC: 0.825706 (Simulation time: 0 hr 2 min 11 sec) 
Heartbeat CPU 0 instructions: 45000000 cycles: 50558771 heartbeat IPC: 0.81809 cumulative IPC: 0.825514 (Simulation time: 0 hr 2 min 13 sec) 
Heartbeat CPU 0 instructions: 46000002 cycles: 51807586 heartbeat IPC: 0.800761 cumulative IPC: 0.824892 (Simulation time: 0 hr 2 min 16 sec) 
Heartbeat CPU 0 instructions: 47000000 cycles: 53048005 heartbeat IPC: 0.806178 cumulative IPC: 0.824437 (Simulation time: 0 hr 2 min 19 sec) 
Heartbeat CPU 0 instructions: 48000000 cycles: 54286341 heartbeat IPC: 0.807535 cumulative IPC: 0.824036 (Simulation time: 0 hr 2 min 22 sec) 
Heartbeat CPU 0 instructions: 49000003 cycles: 55565411 heartbeat IPC: 0.78182 cumulative IPC: 0.823026 (Simulation time: 0 hr 2 min 25 sec) 
Heartbeat CPU 0 instructions: 50000001 cycles: 56604876 heartbeat IPC: 0.962031 cumulative IPC: 0.825677 (Simulation time: 0 hr 2 min 28 sec) 
Heartbeat CPU 0 instructions: 51000002 cycles: 57778204 heartbeat IPC: 0.852277 cumulative IPC: 0.826237 (Simulation time: 0 hr 2 min 31 sec) 
Heartbeat CPU 0 instructions: 52000000 cycles: 58896741 heartbeat IPC: 0.894023 cumulative IPC: 0.827572 (Simulation time: 0 hr 2 min 34 sec) 
Heartbeat CPU 0 instructions: 53000001 cycles: 60101632 heartbeat IPC: 0.829951 cumulative IPC: 0.827622 (Simulation time: 0 hr 2 min 36 sec) 
Heartbeat CPU 0 instructions: 54000000 cycles: 61335721 heartbeat IPC: 0.810314 cumulative IPC: 0.827261 (Simulation time: 0 hr 2 min 39 sec) 
Heartbeat CPU 0 instructions: 55000000 cycles: 62487910 heartbeat IPC: 0.867913 cumulative IPC: 0.828037 (Simulation time: 0 hr 2 min 42 sec) 
Finished CPU 0 instructions: 50000001 cycles: 60383786 cummulative IPC: 0.828037 (Simulation time: 0 hr 2 min 42 sec) 

ChampSim completed all CPUs

Region of Interest Statistics

CPU 0 cummulative IPC: 0.828037 instructions: 50000001 cycles: 60383786
LLC TOTAL     ACCESS:     386639  HIT:     254722  MISS:     131917
LLC LOAD      ACCESS:     249588  HIT:     152696  MISS:      96892
LLC RFO       ACCESS:      46188  HIT:      11264  MISS:      34924
LLC PREFETCH  ACCESS:          0  HIT:          0  MISS:          0
LLC WRITEBACK ACCESS:      90863  HIT:      90762  MISS:        101

*** ChampSim Multicore Out-of-Order Simulator ***

Warmup Instructions: 5000000
Simulation Instructions: 50000000
Configuration: 1
Number of CPUs: 1
LLC sets: 2048
LLC ways: 16
Off-chip DRAM Channels: 1 Width: 64-bit Data Rate: 1600 MT/s

CPU 0 runs /datasets/cs240c-wi22-a00-public/data/Assignment2-gz/bzip2_281B.trace.gz
Initialize LRU replacement state
Heartbeat CPU 0 instructions: 1000000 cycles: 445723 heartbeat IPC: 2.24355 cumulative IPC: 2.24355 (Simulation time: 0 hr 0 min 3 sec) 
Heartbeat CPU 0 instructions: 2000003 cycles: 899728 heartbeat IPC: 2.20263 cumulative IPC: 2.2229 (Simulation time: 0 hr 0 min 6 sec) 
Heartbeat CPU 0 instructions: 3000002 cycles: 1314511 heartbeat IPC: 2.4109 cumulative IPC: 2.28222 (Simulation time: 0 hr 0 min 8 sec) 
Heartbeat CPU 0 instructions: 4000000 cycles: 1753073 heartbeat IPC: 2.28017 cumulative IPC: 2.28171 (Simulation time: 0 hr 0 min 11 sec) 
Heartbeat CPU 0 instructions: 5000002 cycles: 2174914 heartbeat IPC: 2.37057 cumulative IPC: 2.29894 (Simulation time: 0 hr 0 min 13 sec) 

Warmup complete CPU 0 instructions: 5000002 cycles: 2174914 (Simulation time: 0 hr 0 min 13 sec) 

Heartbeat CPU 0 instructions: 6000000 cycles: 3559046 heartbeat IPC: 0.722473 cumulative IPC: 0.722473 (Simulation time: 0 hr 0 min 16 sec) 
Heartbeat CPU 0 instructions: 7000002 cycles: 4764972 heartbeat IPC: 0.82924 cumulative IPC: 0.772183 (Simulation time: 0 hr 0 min 19 sec) 
Heartbeat CPU 0 instructions: 8000000 cycles: 5871201 heartbeat IPC: 0.90397 cumulative IPC: 0.811625 (Simulation time: 0 hr 0 min 21 sec) 
Heartbeat CPU 0 instructions: 9000000 cycles: 7190739 heartbeat IPC: 0.757841 cumulative IPC: 0.797476 (Simulation time: 0 hr 0 min 24 sec) 
Heartbeat CPU 0 instructions: 10000001 cycles: 8575350 heartbeat IPC: 0.722225 cumulative IPC: 0.781197 (Simulation time: 0 hr 0 min 26 sec) 
Heartbeat CPU 0 instructions: 11000000 cycles: 10102544 heartbeat IPC: 0.654795 cumulative IPC: 0.756846 (Simulation time: 0 hr 0 min 29 sec) 
Heartbeat CPU 0 instructions: 12000000 cycles: 11448044 heartbeat IPC: 0.743218 cumulative IPC: 0.754869 (Simulation time: 0 hr 0 min 32 sec) 
Heartbeat CPU 0 instructions: 13000001 cycles: 12962079 heartbeat IPC: 0.660487 cumulative IPC: 0.741622 (Simulation time: 0 hr 0 min 35 sec) 
Heartbeat CPU 0 instructions: 14000000 cycles: 14414135 heartbeat IPC: 0.688678 cumulative IPC: 0.735341 (Simulation time: 0 hr 0 min 37 sec) 
Heartbeat CPU 0 instructions: 15000000 cycles: 16120154 heartbeat IPC: 0.58616 cumulative IPC: 0.71709 (Simulation time: 0 hr 0 min 40 sec) 
Heartbeat CPU 0 instructions: 16000000 cycles: 17903267 heartbeat IPC: 0.560817 cumulative IPC: 0.699374 (Simulation time: 0 hr 0 min 44 sec) 
Heartbeat CPU 0 instructions: 17000003 cycles: 19472845 heartbeat IPC: 0.637116 cumulative IPC: 0.693725 (Simulation time: 0 hr 0 min 47 sec) 
Heartbeat CPU 0 instructions: 18000002 cycles: 21206994 heartbeat IPC: 0.576651 cumulative IPC: 0.683057 (Simulation time: 0 hr 0 min 49 sec) 
Heartbeat CPU 0 instructions: 19000001 cycles: 22646641 heartbeat IPC: 0.694614 cumulative IPC: 0.68387 (Simulation time: 0 hr 0 min 52 sec) 
Heartbeat CPU 0 instructions: 20000000 cycles: 24472915 heartbeat IPC: 0.547562 cumulative IPC: 0.672706 (Simulation time: 0 hr 0 min 54 sec) 
Heartbeat CPU 0 instructions: 21000001 cycles: 26250602 heartbeat IPC: 0.562529 cumulative IPC: 0.664571 (Simulation time: 0 hr 0 min 58 sec) 
Heartbeat CPU 0 instructions: 22000000 cycles: 28646469 heartbeat IPC: 0.417385 cumulative IPC: 0.642199 (Simulation time: 0 hr 1 min 1 sec) 
Heartbeat CPU 0 instructions: 23000001 cycles: 30238582 heartbeat IPC: 0.628097 cumulative IPC: 0.641399 (Simulation time: 0 hr 1 min 4 sec) 
Heartbeat CPU 0 instructions: 24000000 cycles: 32446591 heartbeat IPC: 0.452896 cumulative IPC: 0.627649 (Simulation time: 0 hr 1 min 8 sec) 
Heartbeat CPU 0 instructions: 25000002 cycles: 34504041 heartbeat IPC: 0.48604 cumulative IPC: 0.618637 (Simulation time: 0 hr 1 min 12 sec) 
Heartbeat CPU 0 instructions: 26000003 cycles: 35899372 heartbeat IPC: 0.716677 cumulative IPC: 0.622693 (Simulation time: 0 hr 1 min 15 sec) 
Heartbeat CPU 0 instructions: 27000002 cycles: 37753692 heartbeat IPC: 0.539281 cumulative IPC: 0.618346 (Simulation time: 0 hr 1 min 18 sec) 
Heartbeat CPU 0 instructions: 28000000 cycles: 39094941 heartbeat IPC: 0.745572 cumulative IPC: 0.622968 (Simulation time: 0 hr 1 min 22 sec) 
Heartbeat CPU 0 instructions: 29000001 cycles: 40388452 heartbeat IPC: 0.77309 cumulative IPC: 0.62805 (Simulation time: 0 hr 1 min 25 sec) 
Heartbeat CPU 0 instructions: 30000000 cycles: 42146528 heartbeat IPC: 0.568803 cumulative IPC: 0.625444 (Simulation time: 0 hr 1 min 28 sec) 
Heartbeat CPU 0 instructions: 31000003 cycles: 43874833 heartbeat IPC: 0.578603 cumulative IPC: 0.623502 (Simulation time: 0 hr 1 min 31 sec) 
Heartbeat CPU 0 instructions: 32000000 cycles: 44945181 heartbeat IPC: 0.934273 cumulative IPC: 0.63128 (Simulation time: 0 hr 1 min 34 sec) 
Heartbeat CPU 0 instructions: 33000002 cycles: 46061539 heartbeat IPC: 0.895772 cumulative IPC: 0.638008 (Simulation time: 0 hr 1 min 37 sec) 
Heartbeat CPU 0 instructions: 34000001 cycles: 47092802 heartbeat IPC: 0.969684 cumulative IPC: 0.645622 (Simulation time: 0 hr 1 min 40 sec) 
Heartbeat CPU 0 instructions: 35000000 cycles: 48013480 heartbeat IPC: 1.08615 cumulative IPC: 0.654471 (Simulation time: 0 hr 1 min 42 sec) 
Heartbeat CPU 0 instructions: 36000000 cycles: 48928491 heartbeat IPC: 1.09288 cumulative IPC: 0.663051 (Simulation time: 0 hr 1 min 44 sec) 
Heartbeat CPU 0 instructions: 37000000 cycles: 49830469 heartbeat IPC: 1.10867 cumulative IPC: 0.671485 (Simulation time: 0 hr 1 min 47 sec) 
Heartbeat CPU 0 instructions: 38000000 cycles: 50685786 heartbeat IPC: 1.16916 cumulative IPC: 0.68026 (Simulation time: 0 hr 1 min 49 sec) 
Heartbeat CPU 0 instructions: 39000001 cycles: 51666607 heartbeat IPC: 1.01956 cumulative IPC: 0.686984 (Simulation time: 0 hr 1 min 52 sec) 
Heartbeat CPU 0 instructions: 40000000 cycles: 52705748 heartbeat IPC: 0.962332 cumulative IPC: 0.692646 (Simulation time: 0 hr 1 min 54 sec) 
Heartbeat CPU 0 instructions: 41000002 cycles: 53742731 heartbeat IPC: 0.964338 cumulative IPC: 0.69811 (Simulation time: 0 hr 1 min 57 sec) 
Heartbeat CPU 0 instructions: 42000001 cycles: 54791726 heartbeat IPC: 0.953292 cumulative IPC: 0.703197 (Simulation time: 0 hr 2 min 0 sec) 
Heartbeat CPU 0 instructions: 43000001 cycles: 55814683 heartbeat IPC: 0.977558 cumulative IPC: 0.70843 (Simulation time: 0 hr 2 min 2 sec) 
Heartbeat CPU 0 instructions: 44000000 cycles: 56927980 heartbeat IPC: 0.898232 cumulative IPC: 0.712289 (Simulation time: 0 hr 2 min 5 sec) 
Heartbeat CPU 0 instructions: 45000000 cycles: 57948367 heartbeat IPC: 0.98002 cumulative IPC: 0.717187 (Simulation time: 0 hr 2 min 7 sec) 
Heartbeat CPU 0 instructions: 46000000 cycles: 59031331 heartbeat IPC: 0.923392 cumulative IPC: 0.721115 (Simulation time: 0 hr 2 min 10 sec) 
Heartbeat CPU 0 instructions: 47000000 cycles: 60054995 heartbeat IPC: 0.976883 cumulative IPC: 0.725638 (Simulation time: 0 hr 2 min 13 sec) 
Heartbeat CPU 0 instructions: 48000000 cycles: 61100392 heartbeat IPC: 0.956574 cumulative IPC: 0.729735 (Simulation time: 0 hr 2 min 16 sec) 
Heartbeat CPU 0 instructions: 49000001 cycles: 62186730 heartbeat IPC: 0.920525 cumulative IPC: 0.733189 (Simulation time: 0 hr 2 min 19 sec) 
Heartbeat CPU 0 instructions: 50000003 cycles: 63281331 heartbeat IPC: 0.913577 cumulative IPC: 0.73642 (Simulation time: 0 hr 2 min 21 sec) 
Heartbeat CPU 0 instructions: 51000002 cycles: 64359204 heartbeat IPC: 0.927752 cumulative IPC: 0.739737 (Simulation time: 0 hr 2 min 24 sec) 
Heartbeat CPU 0 instructions: 52000000 cycles: 65477606 heartbeat IPC: 0.894131 cumulative IPC: 0.742464 (Simulation time: 0 hr 2 min 27 sec) 
Heartbeat CPU 0 instructions: 53000000 cycles: 66587361 heartbeat IPC: 0.9011 cumulative IPC: 0.745198 (Simulation time: 0 hr 2 min 30 sec) 
Heartbeat CPU 0 instructions: 54000003 cycles: 67709884 heartbeat IPC: 0.890853 cumulative IPC: 0.747692 (Simulation time: 0 hr 2 min 33 sec) 
Heartbeat CPU 0 instructions: 55000000 cycles: 68809002 heartbeat IPC: 0.909818 cumulative IPC: 0.750367 (Simulation time: 0 hr 2 min 36 sec) 
Finished CPU 0 instructions: 50000001 cycles: 66634089 cummulative IPC: 0.750367 (Simulation time: 0 hr 2 min 36 sec) 

ChampSim completed all CPUs

Region of Interest Statistics

CPU 0 cummulative IPC: 0.750367 instructions: 50000001 cycles: 66634089
LLC TOTAL     ACCESS:    1284684  HIT:    1079980  MISS:     204704
LLC LOAD      ACCESS:     944102  HIT:     809996  MISS:     134106
LLC RFO       ACCESS:     167501  HIT:      96904  MISS:      70597
LLC PREFETCH  ACCESS:          0  HIT:          0  MISS:          0
LLC WRITEBACK ACCESS:     173081  HIT:     173080  MISS:          1

*** ChampSim Multicore Out-of-Order Simulator ***

Warmup Instructions: 5000000
[...]
Heartbeat CPU 0 instructions: 43000003 cycles: 36156837 heartbeat IPC: 1.14173 cumulative IPC: 1.12312 (Simulation time: 0 hr 2 min 15 sec) 
Heartbeat CPU 0 instructions: 44000000 cycles: 37020222 heartbeat IPC: 1.15823 cumulative IPC: 1.12399 (Simulation time: 0 hr 2 min 18 sec) 
Heartbeat CPU 0 instructions: 45000001 cycles: 37897395 heartbeat IPC: 1.14003 cumulative IPC: 1.12439 (Simulation time: 0 hr 2 min 21 sec) 
Heartbeat CPU 0 instructions: 46000002 cycles: 38768546 heartbeat IPC: 1.14791 cumulative IPC: 1.12495 (Simulation time: 0 hr 2 min 24 sec) 
Heartbeat CPU 0 instructions: 47000003 cycles: 39645702 heartbeat IPC: 1.14005 cumulative IPC: 1.12531 (Simulation time: 0 hr 2 min 27 sec) 
Heartbeat CPU 0 instructions: 48000000 cycles: 40512016 heartbeat IPC: 1.15431 cumulative IPC: 1.12596 (Simulation time: 0 hr 2 min 30 sec) 
Heartbeat CPU 0 instructions: 49000001 cycles: 41389389 heartbeat IPC: 1.13977 cumulative IPC: 1.12627 (Simulation time: 0 hr 2 min 33 sec) 
Heartbeat CPU 0 instructions: 50000001 cycles: 42262364 heartbeat IPC: 1.14551 cumulative IPC: 1.12669 (Simulation time: 0 hr 2 min 36 sec) 
Heartbeat CPU 0 instructions: 51000002 cycles: 43141645 heartbeat IPC: 1.13729 cumulative IPC: 1.12692 (Simulation time: 0 hr 2 min 39 sec) 
Heartbeat CPU 0 instructions: 52000000 cycles: 44010256 heartbeat IPC: 1.15126 cumulative IPC: 1.12743 (Simulation time: 0 hr 2 min 42 sec) 
Heartbeat CPU 0 instructions: 53000001 cycles: 44889305 heartbeat IPC: 1.13759 cumulative IPC: 1.12764 (Simulation time: 0 hr 2 min 45 sec) 
Heartbeat CPU 0 instructions: 54000003 cycles: 45754709 heartbeat IPC: 1.15553 cumulative IPC: 1.12819 (Simulation time: 0 hr 2 min 48 sec) 
Heartbeat CPU 0 instructions: 55000003 cycles: 46635229 heartbeat IPC: 1.13569 cumulative IPC: 1.12834 (Simulation time: 0 hr 2 min 51 sec) 
Finished CPU 0 instructions: 50000000 cycles: 44312738 cummulative IPC: 1.12834 (Simulation time: 0 hr 2 min 51 sec) 

ChampSim completed all CPUs

Region of Interest Statistics

CPU 0 cummulative IPC: 1.12834 instructions: 50000000 cycles: 44312738
LLC TOTAL     ACCESS:     373620  HIT:     131969  MISS:     241651
LLC LOAD      ACCESS:     192153  HIT:      40257  MISS:     151896
LLC RFO       ACCESS:      90508  HIT:        993  MISS:      89515
LLC PREFETCH  ACCESS:          0  HIT:          0  MISS:          0
LLC WRITEBACK ACCESS:      90959  HIT:      90719  MISS:        240

*** ChampSim Multicore Out-of-Order Simulator ***

Warmup Instructions: 5000000
Simulation Instructions: 50000000
Configuration: 1
Number of CPUs: 1
LLC sets: 2048
LLC ways: 16
Off-chip DRAM Channels: 1 Width: 64-bit Data Rate: 1600 MT/s

CPU 0 runs /datasets/cs240c-wi22-a00-public/data/Assignment2-gz/zeusmp_300B.trace.gz
Initialize LRU replacement state
Heartbeat CPU 0 instructions: 1000003 cycles: 508391 heartbeat IPC: 1.967 cumulative IPC: 1.967 (Simulation time: 0 hr 0 min 2 sec) 
Heartbeat CPU 0 instructions: 2000003 cycles: 1059161 heartbeat IPC: 1.81564 cumulative IPC: 1.88829 (Simulation time: 0 hr 0 min 5 sec) 
Heartbeat CPU 0 instructions: 3000002 cycles: 1602081 heartbeat IPC: 1.84189 cumulative IPC: 1.87257 (Simulation time: 0 hr 0 min 7 sec) 
Heartbeat CPU 0 instructions: 4000000 cycles: 2087846 heartbeat IPC: 2.0586 cumulative IPC: 1.91585 (Simulation time: 0 hr 0 min 10 sec) 
Heartbeat CPU 0 instructions: 5000001 cycles: 2571024 heartbeat IPC: 2.06963 cumulative IPC: 1.94475 (Simulation time: 0 hr 0 min 12 sec) 

Warmup complete CPU 0 instructions: 5000001 cycles: 2571024 (Simulation time: 0 hr 0 min 12 sec) 

Heartbeat CPU 0 instructions: 6000000 cycles: 3438058 heartbeat IPC: 1.15336 cumulative IPC: 1.15336 (Simulation time: 0 hr 0 min 15 sec) 
Heartbeat CPU 0 instructions: 7000000 cycles: 4388956 heartbeat IPC: 1.05164 cumulative IPC: 1.10015 (Simulation time: 0 hr 0 min 18 sec) 
Heartbeat CPU 0 instructions: 8000000 cycles: 5409800 heartbeat IPC: 0.979582 cumulative IPC: 1.05679 (Simulation time: 0 hr 0 min 21 sec) 
Heartbeat CPU 0 instructions: 9000000 cycles: 6353298 heartbeat IPC: 1.05989 cumulative IPC: 1.05756 (Simulation time: 0 hr 0 min 24 sec) 
Heartbeat CPU 0 instructions: 10000002 cycles: 7212955 heartbeat IPC: 1.16326 cumulative IPC: 1.07714 (Simulation time: 0 hr 0 min 27 sec) 
Heartbeat CPU 0 instructions: 11000003 cycles: 8080549 heartbeat IPC: 1.15261 cumulative IPC: 1.08902 (Simulation time: 0 hr 0 min 30 sec) 
Heartbeat CPU 0 instructions: 12000000 cycles: 8943083 heartbeat IPC: 1.15937 cumulative IPC: 1.09855 (Simulation time: 0 hr 0 min 33 sec) 
Heartbeat CPU 0 instructions: 13000000 cycles: 9933402 heartbeat IPC: 1.00978 cumulative IPC: 1.08661 (Simulation time: 0 hr 0 min 36 sec) 
Heartbeat CPU 0 instructions: 14000000 cycles: 10957074 heartbeat IPC: 0.976875 cumulative IPC: 1.07321 (Simulation time: 0 hr 0 min 39 sec) 
Heartbeat CPU 0 instructions: 15000002 cycles: 11873221 heartbeat IPC: 1.09153 cumulative IPC: 1.07501 (Simulation time: 0 hr 0 min 42 sec) 
Heartbeat CPU 0 instructions: 16000000 cycles: 12742202 heartbeat IPC: 1.15077 cumulative IPC: 1.08149 (Simulation time: 0 hr 0 min 45 sec) 
Heartbeat CPU 0 instructions: 17000002 cycles: 13613024 heartbeat IPC: 1.14834 cumulative IPC: 1.08676 (Simulation time: 0 hr 0 min 47 sec) 
Heartbeat CPU 0 instructions: 18000000 cycles: 14490838 heartbeat IPC: 1.13919 cumulative IPC: 1.09062 (Simulation time: 0 hr 0 min 50 sec) 
Heartbeat CPU 0 instructions: 19000003 cycles: 15512402 heartbeat IPC: 0.978894 cumulative IPC: 1.0818 (Simulation time: 0 hr 0 min 53 sec) 
Heartbeat CPU 0 instructions: 20000000 cycles: 16534061 heartbeat IPC: 0.978797 cumulative IPC: 1.07426 (Simulation time: 0 hr 0 min 56 sec) 
Heartbeat CPU 0 instructions: 21000001 cycles: 17409922 heartbeat IPC: 1.14173 cumulative IPC: 1.07825 (Simulation time: 0 hr 0 min 59 sec) 
Heartbeat CPU 0 instructions: 22000000 cycles: 18276367 heartbeat IPC: 1.15414 cumulative IPC: 1.08243 (Simulation time: 0 hr 1 min 2 sec) 
Heartbeat CPU 0 instructions: 23000001 cycles: 19143575 heartbeat IPC: 1.15313 cumulative IPC: 1.08613 (Simulation time: 0 hr 1 min 5 sec) 
Heartbeat CPU 0 instructions: 24000000 cycles: 20053155 heartbeat IPC: 1.09941 cumulative IPC: 1.08682 (Simulation time: 0 hr 1 min 8 sec) 
Heartbeat CPU 0 instructions: 25000000 cycles: 21075414 heartbeat IPC: 0.978226 cumulative IPC: 1.08082 (Simulation time: 0 hr 1 min 10 sec) 
Heartbeat CPU 0 instructions: 26000003 cycles: 22072142 heartbeat IPC: 1.00329 cumulative IPC: 1.07686 (Simulation time: 0 hr 1 min 13 sec) 
Heartbeat CPU 0 instructions: 27000002 cycles: 22932126 heartbeat IPC: 1.16281 cumulative IPC: 1.08049 (Simulation time: 0 hr 1 min 16 sec) 
Heartbeat CPU 0 instructions: 28000000 cycles: 23796350 heartbeat IPC: 1.15711 cumulative IPC: 1.08361 (Simulation time: 0 hr 1 min 19 sec) 
Heartbeat CPU 0 instructions: 29000003 cycles: 24657502 heartbeat IPC: 1.16124 cumulative IPC: 1.08664 (Simulation time: 0 hr 1 min 22 sec) 
Heartbeat CPU 0 instructions: 30000002 cycles: 25598509 heartbeat IPC: 1.06269 cumulative IPC: 1.08566 (Simulation time: 0 hr 1 min 25 sec) 
Heartbeat CPU 0 instructions: 31000001 cycles: 26624269 heartbeat IPC: 0.974886 cumulative IPC: 1.08094 (Simulation time: 0 hr 1 min 27 sec) 
Heartbeat CPU 0 instructions: 32000000 cycles: 27592458 heartbeat IPC: 1.03286 cumulative IPC: 1.07907 (Simulation time: 0 hr 1 min 30 sec) 
Heartbeat CPU 0 instructions: 33000000 cycles: 28454128 heartbeat IPC: 1.16054 cumulative IPC: 1.08179 (Simulation time: 0 hr 1 min 33 sec) 
Heartbeat CPU 0 instructions: 34000000 cycles: 29323048 heartbeat IPC: 1.15085 cumulative IPC: 1.08403 (Simulation time: 0 hr 1 min 36 sec) 
Heartbeat CPU 0 instructions: 35000000 cycles: 30182649 heartbeat IPC: 1.16333 cumulative IPC: 1.0865 (Simulation time: 0 hr 1 min 39 sec) 
Heartbeat CPU 0 instructions: 36000000 cycles: 31157162 heartbeat IPC: 1.02615 cumulative IPC: 1.08444 (Simulation time: 0 hr 1 min 42 sec) 
Heartbeat CPU 0 instructions: 37000003 cycles: 32179636 heartbeat IPC: 0.978023 cumulative IPC: 1.08077 (Simulation time: 0 hr 1 min 45 sec) 
Heartbeat CPU 0 instructions: 38000001 cycles: 33113545 heartbeat IPC: 1.07077 cumulative IPC: 1.08046 (Simulation time: 0 hr 1 min 48 sec) 
Heartbeat CPU 0 instructions: 39000002 cycles: 33978518 heartbeat IPC: 1.15611 cumulative IPC: 1.08254 (Simulation time: 0 hr 1 min 51 sec) 
Heartbeat CPU 0 instructions: 40000000 cycles: 34849695 heartbeat IPC: 1.14787 cumulative IPC: 1.08431 (Simulation time: 0 hr 1 min 54 sec) 
Heartbeat CPU 0 instructions: 41000001 cycles: 35711678 heartbeat IPC: 1.16012 cumulative IPC: 1.08628 (Simulation time: 0 hr 1 min 57 sec) 
Heartbeat CPU 0 instructions: 42000002 cycles: 36733426 heartbeat IPC: 0.978716 cumulative IPC: 1.08306 (Simulation time: 0 hr 2 min 0 sec) 
Heartbeat CPU 0 instructions: 43000003 cycles: 37752083 heartbeat IPC: 0.981686 cumulative IPC: 1.08013 (Simulation time: 0 hr 2 min 2 sec) 
Heartbeat CPU 0 instructions: 44000000 cycles: 38645615 heartbeat IPC: 1.11915 cumulative IPC: 1.08109 (Simulation time: 0 hr 2 min 5 sec) 
Heartbeat CPU 0 instructions: 45000002 cycles: 39511915 heartbeat IPC: 1.15434 cumulative IPC: 1.08281 (Simulation time: 0 hr 2 min 8 sec) 
Heartbeat CPU 0 instructions: 46000002 cycles: 40378230 heartbeat IPC: 1.15431 cumulative IPC: 1.08445 (Simulation time: 0 hr 2 min 11 sec) 
Heartbeat CPU 0 instructions: 47000001 cycles: 41272290 heartbeat IPC: 1.11849 cumulative IPC: 1.08524 (Simulation time: 0 hr 2 min 14 sec) 
Heartbeat CPU 0 instructions: 48000000 cycles: 42293770 heartbeat IPC: 0.978971 cumulative IPC: 1.0825 (Simulation time: 0 hr 2 min 17 sec) 
Heartbeat CPU 0 instructions: 49000003 cycles: 43309045 heartbeat IPC: 0.984958 cumulative IPC: 1.08007 (Simulation time: 0 hr 2 min 20 sec) 
Heartbeat CPU 0 instructions: 50000001 cycles: 44168988 heartbeat IPC: 1.16287 cumulative IPC: 1.08178 (Simulation time: 0 hr 2 min 23 sec) 
Heartbeat CPU 0 instructions: 51000002 cycles: 45031480 heartbeat IPC: 1.15943 cumulative IPC: 1.08336 (Simulation time: 0 hr 2 min 26 sec) 
Heartbeat CPU 0 instructions: 52000000 cycles: 45893451 heartbeat IPC: 1.16013 cumulative IPC: 1.08489 (Simulation time: 0 hr 2 min 28 sec) 
Heartbeat CPU 0 instructions: 53000000 cycles: 46820742 heartbeat IPC: 1.07841 cumulative IPC: 1.08475 (Simulation time: 0 hr 2 min 31 sec) 
Heartbeat CPU 0 instructions: 54000002 cycles: 47841066 heartbeat IPC: 0.980083 cumulative IPC: 1.08239 (Simulation time: 0 hr 2 min 34 sec) 
Heartbeat CPU 0 instructions: 55000001 cycles: 48817360 heartbeat IPC: 1.02428 cumulative IPC: 1.08117 (Simulation time: 0 hr 2 min 37 sec) 
Finished CPU 0 instructions: 50000000 cycles: 46246336 cummulative IPC: 1.08117 (Simulation time: 0 hr 2 min 37 sec) 

ChampSim completed all CPUs

Region of Interest Statistics

CPU 0 cummulative IPC: 1.08117 instructions: 50000000 cycles: 46246336
LLC TOTAL     ACCESS:     308817  HIT:     176167  MISS:     132650
LLC LOAD      ACCESS:     152853  HIT:      56857  MISS:      95996
LLC RFO       ACCESS:      76965  HIT:      40343  MISS:      36622
LLC PREFETCH  ACCESS:          0  HIT:          0  MISS:          0
LLC WRITEBACK ACCESS:      78999  HIT:      78967  MISS:         32

*** ChampSim Multicore Out-of-Order Simulator ***

Warmup Instructions: 5000000
Simulation Instructions: 50000000
Configuration: 1
Number of CPUs: 1
LLC sets: 2048
LLC ways: 16
Off-chip DRAM Channels: 1 Width: 64-bit Data Rate: 1600 MT/s

CPU 0 runs /datasets/cs240c-wi22-a00-public/data/Assignment2-gz/zeusmp_600B.trace.gz
Initialize LRU replacement state
Heartbeat CPU 0 instructions: 1000000 cycles: 407507 heartbeat IPC: 2.45395 cumulative IPC: 2.45395 (Simulation time: 0 hr 0 min 2 sec) 
Heartbeat CPU 0 instructions: 2000001 cycles: 814374 heartbeat IPC: 2.45781 cumulative IPC: 2.45588 (Simulation time: 0 hr 0 min 5 sec) 
Heartbeat CPU 0 instructions: 3000003 cycles: 1221893 heartbeat IPC: 2.45388 cumulative IPC: 2.45521 (Simulation time: 0 hr 0 min 7 sec) 
Heartbeat CPU 0 instructions: 4000000 cycles: 1629601 heartbeat IPC: 2.45273 cumulative IPC: 2.45459 (Simulation time: 0 hr 0 min 10 sec) 
Heartbeat CPU 0 instructions: 5000001 cycles: 2037319 heartbeat IPC: 2.45268 cumulative IPC: 2.45421 (Simulation time: 0 hr 0 min 12 sec) 

Warmup complete CPU 0 instructions: 5000001 cycles: 2037319 (Simulation time: 0 hr 0 min 12 sec) 

Heartbeat CPU 0 instructions: 6000000 cycles: 2905684 heartbeat IPC: 1.15159 cumulative IPC: 1.15159 (Simulation time: 0 hr 0 min 15 sec) 
Heartbeat CPU 0 instructions: 7000002 cycles: 3778870 heartbeat IPC: 1.14523 cumulative IPC: 1.1484 (Simulation time: 0 hr 0 min 18 sec) 
Heartbeat CPU 0 instructions: 8000000 cycles: 4648245 heartbeat IPC: 1.15025 cumulative IPC: 1.14902 (Simulation time: 0 hr 0 min 21 sec) 
Heartbeat CPU 0 instructions: 9000000 cycles: 5521057 heartbeat IPC: 1.14572 cumulative IPC: 1.14819 (Simulation time: 0 hr 0 min 24 sec) 
Heartbeat CPU 0 instructions: 10000002 cycles: 6393206 heartbeat IPC: 1.1466 cumulative IPC: 1.14787 (Simulation time: 0 hr 0 min 27 sec) 
Heartbeat CPU 0 instructions: 11000000 cycles: 7266750 heartbeat IPC: 1.14476 cumulative IPC: 1.14735 (Simulation time: 0 hr 0 min 30 sec) 
Heartbeat CPU 0 instructions: 12000000 cycles: 8135262 heartbeat IPC: 1.15139 cumulative IPC: 1.14793 (Simulation time: 0 hr 0 min 33 sec) 
Heartbeat CPU 0 instructions: 13000001 cycles: 9008580 heartbeat IPC: 1.14506 cumulative IPC: 1.14757 (Simulation time: 0 hr 0 min 36 sec) 
Heartbeat CPU 0 instructions: 14000001 cycles: 9884817 heartbeat IPC: 1.14124 cumulative IPC: 1.14686 (Simulation time: 0 hr 0 min 39 sec) 
Heartbeat CPU 0 instructions: 15000003 cycles: 10758335 heartbeat IPC: 1.1448 cumulative IPC: 1.14666 (Simulation time: 0 hr 0 min 42 sec) 
Heartbeat CPU 0 instructions: 16000000 cycles: 11691751 heartbeat IPC: 1.07133 cumulative IPC: 1.13937 (Simulation time: 0 hr 0 min 45 sec) 
Heartbeat CPU 0 instructions: 17000001 cycles: 12675787 heartbeat IPC: 1.01622 cumulative IPC: 1.12798 (Simulation time: 0 hr 0 min 48 sec) 
Heartbeat CPU 0 instructions: 18000003 cycles: 13656893 heartbeat IPC: 1.01926 cumulative IPC: 1.1188 (Simulation time: 0 hr 0 min 51 sec) 
Heartbeat CPU 0 instructions: 19000000 cycles: 14623146 heartbeat IPC: 1.03492 cumulative IPC: 1.11236 (Simulation time: 0 hr 0 min 54 sec) 
Heartbeat CPU 0 instructions: 20000000 cycles: 15596082 heartbeat IPC: 1.02782 cumulative IPC: 1.1063 (Simulation time: 0 hr 0 min 57 sec) 
Heartbeat CPU 0 instructions: 21000002 cycles: 16581643 heartbeat IPC: 1.01465 cumulative IPC: 1.10009 (Simulation time: 0 hr 1 min 0 sec) 
Heartbeat CPU 0 instructions: 22000000 cycles: 17563920 heartbeat IPC: 1.01804 cumulative IPC: 1.0949 (Simulation time: 0 hr 1 min 3 sec) 
Heartbeat CPU 0 instructions: 23000000 cycles: 18539382 heartbeat IPC: 1.02516 cumulative IPC: 1.09077 (Simulation time: 0 hr 1 min 6 sec) 
Heartbeat CPU 0 instructions: 24000000 cycles: 19533347 heartbeat IPC: 1.00607 cumulative IPC: 1.08596 (Simulation time: 0 hr 1 min 9 sec) 
Heartbeat CPU 0 instructions: 25000000 cycles: 20498986 heartbeat IPC: 1.03558 cumulative IPC: 1.08333 (Simulation time: 0 hr 1 min 12 sec) 
Heartbeat CPU 0 instructions: 26000000 cycles: 21454861 heartbeat IPC: 1.04616 cumulative IPC: 1.0815 (Simulation time: 0 hr 1 min 15 sec) 
Heartbeat CPU 0 instructions: 27000003 cycles: 22431870 heartbeat IPC: 1.02354 cumulative IPC: 1.07872 (Simulation time: 0 hr 1 min 18 sec) 
Heartbeat CPU 0 instructions: 28000000 cycles: 23429468 heartbeat IPC: 1.0024 cumulative IPC: 1.07516 (Simulation time: 0 hr 1 min 21 sec) 
Heartbeat CPU 0 instructions: 29000000 cycles: 24408127 heartbeat IPC: 1.02181 cumulative IPC: 1.07283 (Simulation time: 0 hr 1 min 24 sec) 
Heartbeat CPU 0 instructions: 30000003 cycles: 25382393 heartbeat IPC: 1.02642 cumulative IPC: 1.07089 (Simulation time: 0 hr 1 min 27 sec) 
Heartbeat CPU 0 instructions: 31000002 cycles: 26377892 heartbeat IPC: 1.00452 cumulative IPC: 1.06818 (Simulation time: 0 hr 1 min 30 sec) 
Heartbeat CPU 0 instructions: 32000000 cycles: 27369248 heartbeat IPC: 1.00872 cumulative IPC: 1.06585 (Simulation time: 0 hr 1 min 33 sec) 
Heartbeat CPU 0 instructions: 33000001 cycles: 28349998 heartbeat IPC: 1.01963 cumulative IPC: 1.06413 (Simulation time: 0 hr 1 min 36 sec) 
Heartbeat CPU 0 instructions: 34000000 cycles: 29321195 heartbeat IPC: 1.02966 cumulative IPC: 1.0629 (Simulation time: 0 hr 1 min 39 sec) 
Heartbeat CPU 0 instructions: 35000003 cycles: 30297290 heartbeat IPC: 1.02449 cumulative IPC: 1.06157 (Simulation time: 0 hr 1 min 42 sec) 
Heartbeat CPU 0 instructions: 36000000 cycles: 31282725 heartbeat IPC: 1.01478 cumulative IPC: 1.06 (Simulation time: 0 hr 1 min 45 sec) 
Heartbeat CPU 0 instructions: 37000001 cycles: 32265734 heartbeat IPC: 1.01729 cumulative IPC: 1.05861 (Simulation time: 0 hr 1 min 48 sec) 
Heartbeat CPU 0 instructions: 38000000 cycles: 33254863 heartbeat IPC: 1.01099 cumulative IPC: 1.0571 (Simulation time: 0 hr 1 min 51 sec) 
Heartbeat CPU 0 instructions: 39000002 cycles: 34242406 heartbeat IPC: 1.01262 cumulative IPC: 1.05573 (Simulation time: 0 hr 1 min 53 sec) 
Heartbeat CPU 0 instructions: 40000000 cycles: 35218574 heartbeat IPC: 1.02441 cumulative IPC: 1.05481 (Simulation time: 0 hr 1 min 56 sec) 
Heartbeat CPU 0 instructions: 41000000 cycles: 36211554 heartbeat IPC: 1.00707 cumulative IPC: 1.05343 (Simulation time: 0 hr 1 min 59 sec) 
Heartbeat CPU 0 instructions: 42000000 cycles: 37186762 heartbeat IPC: 1.02542 cumulative IPC: 1.05265 (Simulation time: 0 hr 2 min 2 sec) 
Heartbeat CPU 0 instructions: 43000002 cycles: 38170852 heartbeat IPC: 1.01617 cumulative IPC: 1.05165 (Simulation time: 0 hr 2 min 5 sec) 
Heartbeat CPU 0 instructions: 44000000 cycles: 39143411 heartbeat IPC: 1.02821 cumulative IPC: 1.05104 (Simulation time: 0 hr 2 min 8 sec) 
Heartbeat CPU 0 instructions: 45000000 cycles: 40124064 heartbeat IPC: 1.01973 cumulative IPC: 1.05023 (Simulation time: 0 hr 2 min 11 sec) 
Heartbeat CPU 0 instructions: 46000000 cycles: 41103797 heartbeat IPC: 1.02069 cumulative IPC: 1.04949 (Simulation time: 0 hr 2 min 14 sec) 
Heartbeat CPU 0 instructions: 47000003 cycles: 42092338 heartbeat IPC: 1.01159 cumulative IPC: 1.04856 (Simulation time: 0 hr 2 min 17 sec) 
Heartbeat CPU 0 instructions: 48000000 cycles: 43076428 heartbeat IPC: 1.01616 cumulative IPC: 1.04778 (Simulation time: 0 hr 2 min 20 sec) 
Heartbeat CPU 0 instructions: 49000000 cycles: 44053201 heartbeat IPC: 1.02378 cumulative IPC: 1.04722 (Simulation time: 0 hr 2 min 23 sec) 
Heartbeat CPU 0 instructions: 50000001 cycles: 45029410 heartbeat IPC: 1.02437 cumulative IPC: 1.0467 (Simulation time: 0 hr 2 min 26 sec) 
Heartbeat CPU 0 instructions: 51000001 cycles: 46026586 heartbeat IPC: 1.00283 cumulative IPC: 1.04571 (Simulation time: 0 hr 2 min 29 sec) 
Heartbeat CPU 0 instructions: 52000000 cycles: 46997830 heartbeat IPC: 1.02961 cumulative IPC: 1.04536 (Simulation time: 0 hr 2 min 31 sec) 
Heartbeat CPU 0 instructions: 53000000 cycles: 47988476 heartbeat IPC: 1.00944 cumulative IPC: 1.04459 (Simulation time: 0 hr 2 min 35 sec) 
Heartbeat CPU 0 instructions: 54000000 cycles: 48970509 heartbeat IPC: 1.0183 cumulative IPC: 1.04404 (Simulation time: 0 hr 2 min 38 sec) 
Heartbeat CPU 0 instructions: 55000001 cycles: 49954721 heartbeat IPC: 1.01604 cumulative IPC: 1.04346 (Simulation time: 0 hr 2 min 41 sec) 
Finished CPU 0 instructions: 50000000 cycles: 47917402 cummulative IPC: 1.04346 (Simulation time: 0 hr 2 min 41 sec) 

ChampSim completed all CPUs

Region of Interest Statistics

CPU 0 cummulative IPC: 1.04346 instructions: 50000000 cycles: 47917402
LLC TOTAL     ACCESS:     193104  HIT:      35700  MISS:     157404
LLC LOAD      ACCESS:     155492  HIT:       4555  MISS:     150937
LLC RFO       ACCESS:       6429  HIT:          1  MISS:       6428
LLC PREFETCH  ACCESS:          0  HIT:          0  MISS:          0
LLC WRITEBACK ACCESS:      31183  HIT:      31144  MISS:         39
