
*** ChampSim Multicore Out-of-Order Simulator ***

Warmup Instructions: 5000000
Simulation Instructions: 50000000
Configuration: 1
Number of CPUs: 1
LLC sets: 2048
LLC ways: 16
Off-chip DRAM Channels: 1 Width: 64-bit Data Rate: 1600 MT/s


*** ChampSim Multicore Out-of-Order Simulator ***

Warmup Instructions: 5000000
Simulation Instructions: 50000000
Configuration: 1
Number of CPUs: 1
LLC sets: 2048
LLC ways: 16
Off-chip DRAM Channels: 1 Width: 64-bit Data Rate: 1600 MT/s


*** ChampSim Multicore Out-of-Order Simulator ***

Warmup Instructions: 5000000
Simulation Instructions: 50000000
Configuration: 1
Number of CPUs: 1
LLC sets: 2048
LLC ways: 16
Off-chip DRAM Channels: 1 Width: 64-bit Data Rate: 1600 MT/s


*** ChampSim Multicore Out-of-Order Simulator ***

Warmup Instructions: 5000000
Simulation Instructions: 50000000
Configuration: 1
Number of CPUs: 1
LLC sets: 2048

LLC ways: 16
*** ChampSim Multicore Out-of-Order Simulator ***

Off-chip DRAM Channels: 1 Width: 64-bit Data Rate: 1600 MT/s

Warmup Instructions: 5000000
Simulation Instructions: 50000000
Configuration: 1
Number of CPUs: 1
LLC sets: 2048
LLC ways: 16

Off-chip DRAM Channels: 1 Width: 64-bit Data Rate: 1600 MT/s

*** ChampSim Multicore Out-of-Order Simulator ***

Warmup Instructions: 5000000
Simulation Instructions: 50000000
Configuration: 1
Number of CPUs: 1
LLC sets: 2048
LLC ways: 16
Off-chip DRAM Channels: 1 Width: 64-bit Data Rate: 1600 MT/s


*** ChampSim Multicore Out-of-Order Simulator ***

Warmup Instructions: 5000000
Simulation Instructions: 50000000
Configuration: 1
Number of CPUs: 1
LLC sets: 2048
LLC ways: 16
Off-chip DRAM Channels: 1 Width: 64-bit Data Rate: 1600 MT/s


*** ChampSim Multicore Out-of-Order Simulator ***


*** ChampSim Multicore Out-of-Order Simulator ***

Warmup Instructions: 5000000
Warmup Instructions: 5000000
Simulation Instructions: 50000000
Simulation Instructions: 50000000
Configuration: 1
Configuration: 1
Number of CPUs: 1
LLC sets: 2048
LLC ways: 16
Number of CPUs: 1
LLC sets: 2048
LLC ways: 16
Off-chip DRAM Channels: 1 Width: 64-bit Data Rate: 1600 MT/s

Off-chip DRAM Channels: 1 Width: 64-bit Data Rate: 1600 MT/s


*** ChampSim Multicore Out-of-Order Simulator ***

Warmup Instructions: 5000000
Simulation Instructions: 50000000
Configuration: 1
Number of CPUs: 1
LLC sets: 2048
LLC ways: 16
Off-chip DRAM Channels: 1 Width: 64-bit Data Rate: 1600 MT/s


*** ChampSim Multicore Out-of-Order Simulator ***

Warmup Instructions: 5000000
Simulation Instructions: 50000000
Configuration: 1
Number of CPUs: 1
LLC sets: 2048
LLC ways: 16
Off-chip DRAM Channels: 1 Width: 64-bit Data Rate: 1600 MT/s


*** ChampSim Multicore Out-of-Order Simulator ***

Warmup Instructions: 5000000
Simulation Instructions: 50000000
Configuration: 1
Number of CPUs: 1
LLC sets: 2048
LLC ways: 16
Off-chip DRAM Channels: 1 Width: 64-bit Data Rate: 1600 MT/s


*** ChampSim Multicore Out-of-Order Simulator ***

Warmup Instructions: 5000000
Simulation Instructions: 50000000
Configuration: 1
Number of CPUs: 1
LLC sets: 2048
LLC ways: 16
Off-chip DRAM Channels: 1 Width: 64-bit Data Rate: 1600 MT/s


*** ChampSim Multicore Out-of-Order Simulator ***

Warmup Instructions: 5000000
Simulation Instructions: 50000000
Configuration: 1
Number of CPUs: 1
LLC sets: 2048
LLC ways: 16
Off-chip DRAM Channels: 1 Width: 64-bit Data Rate: 1600 MT/s


*** ChampSim Multicore Out-of-Order Simulator ***

Warmup Instructions: 5000000
Simulation Instructions: 50000000

Configuration: 1

Number of CPUs: 1
LLC sets: 2048
LLC ways: 16
*** ChampSim Multicore Out-of-Order Simulator ***
*** ChampSim Multicore Out-of-Order Simulator ***

Warmup Instructions: 5000000
Simulation Instructions: 50000000
Configuration: 1
Number of CPUs: 1
LLC sets: 2048
LLC ways: 16

Off-chip DRAM Channels: 1 Width: 64-bit Data Rate: 1600 MT/s

Warmup Instructions: 5000000
Simulation Instructions: 50000000
Configuration: 1
Off-chip DRAM Channels: 1 Width: 64-bit Data Rate: 1600 MT/s


*** ChampSim Multicore Out-of-Order Simulator ***

Warmup Instructions: 5000000
Simulation Instructions: 50000000
Configuration: 1
Number of CPUs: 1
LLC sets: 2048
LLC ways: 16
Off-chip DRAM Channels: 1 Width: 64-bit Data Rate: 1600 MT/s


*** ChampSim Multicore Out-of-Order Simulator ***

Number of CPUs: 1
Warmup Instructions: 5000000
Simulation Instructions: 50000000
Configuration: 1
LLC sets: 2048
Number of CPUs: 1
LLC ways: 16
LLC sets: 2048
LLC ways: 16
Off-chip DRAM Channels: 1 Width: 64-bit Data Rate: 1600 MT/s

Off-chip DRAM Channels: 1 Width: 64-bit Data Rate: 1600 MT/s



*** ChampSim Multicore Out-of-Order Simulator ***

*** ChampSim Multicore Out-of-Order Simulator ***

Warmup Instructions: 5000000
Simulation Instructions: 50000000
Configuration: 1

Number of CPUs: 1
Warmup Instructions: 5000000
LLC sets: 2048
Simulation Instructions: 50000000
LLC ways: 16
*** ChampSim Multicore Out-of-Order Simulator ***
Configuration: 1

Number of CPUs: 1
LLC sets: 2048
LLC ways: 16
Off-chip DRAM Channels: 1 Width: 64-bit Data Rate: 1600 MT/s

Warmup Instructions: 5000000
Simulation Instructions: 50000000
Configuration: 1
Number of CPUs: 1
Off-chip DRAM Channels: 1 Width: 64-bit Data Rate: 1600 MT/s

LLC sets: 2048
LLC ways: 16
Off-chip DRAM Channels: 1 Width: 64-bit Data Rate: 1600 MT/s


*** ChampSim Multicore Out-of-Order Simulator ***

Warmup Instructions: 5000000
Simulation Instructions: 50000000
Configuration: 1
Number of CPUs: 1
LLC sets: 2048
LLC ways: 16
Off-chip DRAM Channels: 1 Width: 64-bit Data Rate: 1600 MT/s


*** ChampSim Multicore Out-of-Order Simulator ***

Warmup Instructions: 5000000
Simulation Instructions: 50000000
Configuration: 1
Number of CPUs: 1
LLC sets: 2048
LLC ways: 16
Off-chip DRAM Channels: 1 Width: 64-bit Data Rate: 1600 MT/s


*** ChampSim Multicore Out-of-Order Simulator ***

Warmup Instructions: 5000000
Simulation Instructions: 50000000
Configuration: 1
Number of CPUs: 1
LLC sets: 2048
LLC ways: 16
Off-chip DRAM Channels: 1 Width: 64-bit Data Rate: 1600 MT/s


*** ChampSim Multicore Out-of-Order Simulator ***

Warmup Instructions: 5000000
Simulation Instructions: 50000000
Configuration: 1
Number of CPUs: 1
LLC sets: 2048
LLC ways: 16
Off-chip DRAM Channels: 1 Width: 64-bit Data Rate: 1600 MT/s


*** ChampSim Multicore Out-of-Order Simulator ***

Warmup Instructions: 5000000
Simulation Instructions: 50000000
Configuration: 1
Number of CPUs: 1
LLC sets: 2048
LLC ways: 16
Off-chip DRAM Channels: 1 Width: 64-bit Data Rate: 1600 MT/s


*** ChampSim Multicore Out-of-Order Simulator ***

Warmup Instructions: 5000000
Simulation Instructions: 50000000
Configuration: 1
Number of CPUs: 1
LLC sets: 2048
LLC ways: 16
Off-chip DRAM Channels: 1 Width: 64-bit Data Rate: 1600 MT/s


*** ChampSim Multicore Out-of-Order Simulator ***

Warmup Instructions: 5000000
Simulation Instructions: 50000000
Configuration: 1

Number of CPUs: 1
LLC sets: 2048
LLC ways: 16
Off-chip DRAM Channels: 1 Width: 64-bit Data Rate: 1600 MT/s

*** ChampSim Multicore Out-of-Order Simulator ***

Warmup Instructions: 5000000
Simulation Instructions: 50000000
Configuration: 1
Number of CPUs: 1
LLC sets: 2048
LLC ways: 16
Off-chip DRAM Channels: 1 Width: 64-bit Data Rate: 1600 MT/s


*** ChampSim Multicore Out-of-Order Simulator ***

Warmup Instructions: 5000000
Simulation Instructions: 50000000
Configuration: 1
Number of CPUs: 1
LLC sets: 2048
LLC ways: 16
Off-chip DRAM Channels: 1 Width: 64-bit Data Rate: 1600 MT/s


*** ChampSim Multicore Out-of-Order Simulator ***

Warmup Instructions: 5000000
Simulation Instructions: 50000000
Configuration: 1
Number of CPUs: 1
LLC sets: 2048
LLC ways: 16
Off-chip DRAM Channels: 1 Width: 64-bit Data Rate: 1600 MT/s


*** ChampSim Multicore Out-of-Order Simulator ***

Warmup Instructions: 5000000
Simulation Instructions: 50000000
Configuration: 1
Number of CPUs: 1
LLC sets: 2048
LLC ways: 16
Off-chip DRAM Channels: 1 Width: 64-bit Data Rate: 1600 MT/s


*** ChampSim Multicore Out-of-Order Simulator ***

Warmup Instructions: 5000000
Simulation Instructions: 50000000
Configuration: 1
Number of CPUs: 1
LLC sets: 2048
LLC ways: 16
Off-chip DRAM Channels: 1 Width: 64-bit Data Rate: 1600 MT/s


*** ChampSim Multicore Out-of-Order Simulator ***


Warmup Instructions: 5000000
Simulation Instructions: 50000000
Configuration: 1
Number of CPUs: 1
LLC sets: 2048
LLC ways: 16
Off-chip DRAM Channels: 1 Width: 64-bit Data Rate: 1600 MT/s

*** ChampSim Multicore Out-of-Order Simulator ***

Warmup Instructions: 5000000
Simulation Instructions: 50000000
Configuration: 1
Number of CPUs: 1
LLC sets: 2048
LLC ways: 16
Off-chip DRAM Channels: 1 Width: 64-bit Data Rate: 1600 MT/s


*** ChampSim Multicore Out-of-Order Simulator ***

Warmup Instructions: 5000000
Simulation Instructions: 50000000
Configuration: 1
Number of CPUs: 1
LLC sets: 2048
LLC ways: 16
Off-chip DRAM Channels: 1 Width: 64-bit Data Rate: 1600 MT/s


*** ChampSim Multicore Out-of-Order Simulator ***

Warmup Instructions: 5000000
Simulation Instructions: 50000000
Configuration: 1
Number of CPUs: 1
LLC sets: 2048
LLC ways: 16
Off-chip DRAM Channels: 1 Width: 64-bit Data Rate: 1600 MT/s


*** ChampSim Multicore Out-of-Order Simulator ***

Warmup Instructions: 5000000
Simulation Instructions: 50000000
Configuration: 1
Number of CPUs: 1
LLC sets: 2048
LLC ways: 16
Off-chip DRAM Channels: 1 Width: 64-bit Data Rate: 1600 MT/s


*** ChampSim Multicore Out-of-Order Simulator ***

Warmup Instructions: 5000000
Simulation Instructions: 50000000
Configuration: 1
Number of CPUs: 1
LLC sets: 2048
LLC ways: 16
Off-chip DRAM Channels: 1 Width: 64-bit Data Rate: 1600 MT/s


*** ChampSim Multicore Out-of-Order Simulator ***

Warmup Instructions: 5000000
Simulation Instructions: 50000000
Configuration: 1
Number of CPUs: 1
LLC sets: 2048
LLC ways: 16
Off-chip DRAM Channels: 1 Width: 64-bit Data Rate: 1600 MT/s


*** ChampSim Multicore Out-of-Order Simulator ***

Warmup Instructions: 5000000
Simulation Instructions: 50000000
Configuration: 1
Number of CPUs: 1
LLC sets: 2048
LLC ways: 16
Off-chip DRAM Channels: 1 Width: 64-bit Data Rate: 1600 MT/s


*** ChampSim Multicore Out-of-Order Simulator ***

Warmup Instructions: 5000000
Simulation Instructions: 50000000
Configuration: 1
Number of CPUs: 1
LLC sets: 2048
LLC ways: 16
Off-chip DRAM Channels: 1 Width: 64-bit Data Rate: 1600 MT/s


*** ChampSim Multicore Out-of-Order Simulator ***

Warmup Instructions: 5000000
Simulation Instructions: 50000000
Configuration: 1
Number of CPUs: 1
LLC sets: 2048
LLC ways: 16
Off-chip DRAM Channels: 1 Width: 64-bit Data Rate: 1600 MT/s


*** ChampSim Multicore Out-of-Order Simulator ***

Warmup Instructions: 5000000
Simulation Instructions: 50000000
Configuration: 1
Number of CPUs: 1
LLC sets: 2048
LLC ways: 16
Off-chip DRAM Channels: 1 Width: 64-bit Data Rate: 1600 MT/s


*** ChampSim Multicore Out-of-Order Simulator ***

Warmup Instructions: 5000000
Simulation Instructions: 50000000
Configuration: 1
Number of CPUs: 1
LLC sets: 2048
LLC ways: 16
Off-chip DRAM Channels: 1 Width: 64-bit Data Rate: 1600 MT/s


*** ChampSim Multicore Out-of-Order Simulator ***

Warmup Instructions: 5000000
Simulation Instructions: 50000000
Configuration: 1
Number of CPUs: 1
LLC sets: 2048
LLC ways: 16
Off-chip DRAM Channels: 1 Width: 64-bit Data Rate: 1600 MT/s


*** ChampSim Multicore Out-of-Order Simulator ***

Warmup Instructions: 5000000
Simulation Instructions: 50000000
Configuration: 1
Number of CPUs: 1
LLC sets: 2048
LLC ways: 16
Off-chip DRAM Channels: 1 Width: 64-bit Data Rate: 1600 MT/s


*** ChampSim Multicore Out-of-Order Simulator ***

Warmup Instructions: 5000000
Simulation Instructions: 50000000
Configuration: 1
Number of CPUs: 1
LLC sets: 2048
LLC ways: 16
Off-chip DRAM Channels: 1 Width: 64-bit Data Rate: 1600 MT/s


*** ChampSim Multicore Out-of-Order Simulator ***

Warmup Instructions: 5000000
Simulation Instructions: 50000000
Configuration: 1
Number of CPUs: 1
LLC sets: 2048
LLC ways: 16
Off-chip DRAM Channels: 1 Width: 64-bit Data Rate: 1600 MT/s


*** ChampSim Multicore Out-of-Order Simulator ***

Warmup Instructions: 5000000
Simulation Instructions: 50000000
Configuration: 1
Number of CPUs: 1
LLC sets: 2048
LLC ways: 16
Off-chip DRAM Channels: 1 Width: 64-bit Data Rate: 1600 MT/s

CPU 0 runs /datasets/cs240c-wi22-a00-public/data/Assignment2-gz/libquantum_964B.trace.gz
Heartbeat CPU 0 instructions: 1000001 cycles: 333344 heartbeat IPC: 2.99991 cumulative IPC: 2.99991 (Simulation time: 0 hr 2 min 12 sec) 
CPU 0 runs /datasets/cs240c-wi22-a00-public/data/Assignment2-gz/libquantum_1735B.trace.gz
Heartbeat CPU 0 instructions: 1000003 cycles: 333345 heartbeat IPC: 2.9999 cumulative IPC: 2.9999 (Simulation time: 0 hr 2 min 17 sec) 
CPU 0 runs /datasets/cs240c-wi22-a00-public/data/Assignment2-gz/libquantum_1210B.trace.gz
Heartbeat CPU 0 instructions: 1000003 cycles: 314916 heartbeat IPC: 3.17546 cumulative IPC: 3.17546 (Simulation time: 0 hr 2 min 20 sec) 
CPU 0 runs /datasets/cs240c-wi22-a00-public/data/Assignment2-gz/calculix_2655B.trace.gz
Heartbeat CPU 0 instructions: 1000003 cycles: 371402 heartbeat IPC: 2.69251 cumulative IPC: 2.69251 (Simulation time: 0 hr 2 min 31 sec) 
CPU 0 runs /datasets/cs240c-wi22-a00-public/data/Assignment2-gz/calculix_2670B.trace.gz
Heartbeat CPU 0 instructions: 1000003 cycles: 520140 heartbeat IPC: 1.92257 cumulative IPC: 1.92257 (Simulation time: 0 hr 2 min 56 sec) 
CPU 0 runs /datasets/cs240c-wi22-a00-public/data/Assignment2-gz/sphinx3_1339B.trace.gz
Heartbeat CPU 0 instructions: 1000001 cycles: 338437 heartbeat IPC: 2.95476 cumulative IPC: 2.95476 (Simulation time: 0 hr 3 min 0 sec) 
CPU 0 runs /datasets/cs240c-wi22-a00-public/data/Assignment2-gz/omnetpp_17B.trace.gz
Heartbeat CPU 0 instructions: 1000000 cycles: 559815 heartbeat IPC: 1.7863 cumulative IPC: 1.7863 (Simulation time: 0 hr 3 min 2 sec) 
CPU 0 runs /datasets/cs240c-wi22-a00-public/data/Assignment2-gz/zeusmp_600B.trace.gz
Heartbeat CPU 0 instructions: 1000000 cycles: 407507 heartbeat IPC: 2.45395 cumulative IPC: 2.45395 (Simulation time: 0 hr 3 min 5 sec) 
CPU 0 runs /datasets/cs240c-wi22-a00-public/data/Assignment2-gz/soplex_205B.trace.gz
Heartbeat CPU 0 instructions: 1000000 cycles: 394357 heartbeat IPC: 2.53577 cumulative IPC: 2.53577 (Simulation time: 0 hr 3 min 9 sec) 
CPU 0 runs /datasets/cs240c-wi22-a00-public/data/Assignment2-gz/sphinx3_2520B.trace.gz
Heartbeat CPU 0 instructions: 1000003 cycles: 338265 heartbeat IPC: 2.95627 cumulative IPC: 2.95627 (Simulation time: 0 hr 3 min 9 sec) 
CPU 0 runs /datasets/cs240c-wi22-a00-public/data/Assignment2-gz/omnetpp_4B.trace.gz
Heartbeat CPU 0 instructions: 1000001 cycles: 566837 heartbeat IPC: 1.76418 cumulative IPC: 1.76418 (Simulation time: 0 hr 3 min 11 sec) 
CPU 0 runs /datasets/cs240c-wi22-a00-public/data/Assignment2-gz/zeusmp_100B.trace.gz
Heartbeat CPU 0 instructions: 1000002 cycles: 464468 heartbeat IPC: 2.15301 cumulative IPC: 2.15301 (Simulation time: 0 hr 3 min 11 sec) 
CPU 0 runs /datasets/cs240c-wi22-a00-public/data/Assignment2-gz/milc_409B.trace.gz
Heartbeat CPU 0 instructions: 1000000 cycles: 402731 heartbeat IPC: 2.48305 cumulative IPC: 2.48305 (Simulation time: 0 hr 3 min 18 sec) 
CPU 0 runs /datasets/cs240c-wi22-a00-public/data/Assignment2-gz/lbm_564B.trace.gz
Heartbeat CPU 0 instructions: 1000000 cycles: 390238 heartbeat IPC: 2.56254 cumulative IPC: 2.56254 (Simulation time: 0 hr 3 min 17 sec) 
CPU 0 runs /datasets/cs240c-wi22-a00-public/data/Assignment2-gz/lbm_94B.trace.gz
Heartbeat CPU 0 instructions: 1000000 cycles: 422411 heartbeat IPC: 2.36736 cumulative IPC: 2.36736 (Simulation time: 0 hr 3 min 17 sec) 
CPU 0 runs /datasets/cs240c-wi22-a00-public/data/Assignment2-gz/soplex_66B.trace.gz
Heartbeat CPU 0 instructions: 1000003 cycles: 416333 heartbeat IPC: 2.40193 cumulative IPC: 2.40193 (Simulation time: 0 hr 3 min 18 sec) 
CPU 0 runs /datasets/cs240c-wi22-a00-public/data/Assignment2-gz/lbm_1004B.trace.gz
Heartbeat CPU 0 instructions: 1000002 cycles: 391495 heartbeat IPC: 2.55432 cumulative IPC: 2.55432 (Simulation time: 0 hr 3 min 20 sec) 
CPU 0 runs /datasets/cs240c-wi22-a00-public/data/Assignment2-gz/zeusmp_300B.trace.gz
Heartbeat CPU 0 instructions: 1000003 cycles: 508391 heartbeat IPC: 1.967 cumulative IPC: 1.967 (Simulation time: 0 hr 3 min 20 sec) 
CPU 0 runs /datasets/cs240c-wi22-a00-public/data/Assignment2-gz/milc_744B.trace.gz
Heartbeat CPU 0 instructions: 1000000 cycles: 383399 heartbeat IPC: 2.60825 cumulative IPC: 2.60825 (Simulation time: 0 hr 3 min 22 sec) 
CPU 0 runs /datasets/cs240c-wi22-a00-public/data/Assignment2-gz/sphinx3_883B.trace.gz
Heartbeat CPU 0 instructions: 1000003 cycles: 413061 heartbeat IPC: 2.42096 cumulative IPC: 2.42096 (Simulation time: 0 hr 3 min 25 sec) 
CPU 0 runs /datasets/cs240c-wi22-a00-public/data/Assignment2-gz/astar_23B.trace.gz
Heartbeat CPU 0 instructions: 1000000 cycles: 360103 heartbeat IPC: 2.77698 cumulative IPC: 2.77698 (Simulation time: 0 hr 3 min 31 sec) 
CPU 0 runs /datasets/cs240c-wi22-a00-public/data/Assignment2-gz/calculix_3812B.trace.gz
Heartbeat CPU 0 instructions: 1000001 cycles: 475279 heartbeat IPC: 2.10403 cumulative IPC: 2.10403 (Simulation time: 0 hr 3 min 34 sec) 
CPU 0 runs /datasets/cs240c-wi22-a00-public/data/Assignment2-gz/bzip2_183B.trace.gz
Heartbeat CPU 0 instructions: 1000000 cycles: 448069 heartbeat IPC: 2.2318 cumulative IPC: 2.2318 (Simulation time: 0 hr 3 min 37 sec) 
CPU 0 runs /datasets/cs240c-wi22-a00-public/data/Assignment2-gz/wrf_1212B.trace.gz
Heartbeat CPU 0 instructions: 1000001 cycles: 599253 heartbeat IPC: 1.66875 cumulative IPC: 1.66875 (Simulation time: 0 hr 3 min 36 sec) 
CPU 0 runs /datasets/cs240c-wi22-a00-public/data/Assignment2-gz/gcc_13B.trace.gz
Heartbeat CPU 0 instructions: 1000000 cycles: 644728 heartbeat IPC: 1.55104 cumulative IPC: 1.55104 (Simulation time: 0 hr 3 min 41 sec) 
CPU 0 runs /datasets/cs240c-wi22-a00-public/data/Assignment2-gz/wrf_1650B.trace.gz
Heartbeat CPU 0 instructions: 1000000 cycles: 514412 heartbeat IPC: 1.94397 cumulative IPC: 1.94397 (Simulation time: 0 hr 3 min 40 sec) 
CPU 0 runs /datasets/cs240c-wi22-a00-public/data/Assignment2-gz/GemsFDTD_716B.trace.gz
Heartbeat CPU 0 instructions: 1000000 cycles: 415494 heartbeat IPC: 2.40677 cumulative IPC: 2.40677 (Simulation time: 0 hr 3 min 41 sec) 
CPU 0 runs /datasets/cs240c-wi22-a00-public/data/Assignment2-gz/astar_163B.trace.gz
Heartbeat CPU 0 instructions: 1000002 cycles: 530774 heartbeat IPC: 1.88404 cumulative IPC: 1.88404 (Simulation time: 0 hr 3 min 42 sec) 
CPU 0 runs /datasets/cs240c-wi22-a00-public/data/Assignment2-gz/bzip2_281B.trace.gz
Heartbeat CPU 0 instructions: 1000000 cycles: 445723 heartbeat IPC: 2.24355 cumulative IPC: 2.24355 (Simulation time: 0 hr 3 min 42 sec) 
CPU 0 runs /datasets/cs240c-wi22-a00-public/data/Assignment2-gz/perlbench_105B.trace.gz
Heartbeat CPU 0 instructions: 1000000 cycles: 578082 heartbeat IPC: 1.72986 cumulative IPC: 1.72986 (Simulation time: 0 hr 3 min 41 sec) 
CPU 0 runs /datasets/cs240c-wi22-a00-public/data/Assignment2-gz/soplex_217B.trace.gz
Heartbeat CPU 0 instructions: 1000000 cycles: 437356 heartbeat IPC: 2.28647 cumulative IPC: 2.28647 (Simulation time: 0 hr 3 min 47 sec) 
CPU 0 runs /datasets/cs240c-wi22-a00-public/data/Assignment2-gz/bzip2_259B.trace.gz
Heartbeat CPU 0 instructions: 1000002 cycles: 428954 heartbeat IPC: 2.33126 cumulative IPC: 2.33126 (Simulation time: 0 hr 3 min 49 sec) 
CPU 0 runs /datasets/cs240c-wi22-a00-public/data/Assignment2-gz/mcf_46B.trace.gz
Heartbeat CPU 0 instructions: 1000002 cycles: 482159 heartbeat IPC: 2.07401 cumulative IPC: 2.07401 (Simulation time: 0 hr 3 min 49 sec) 
CPU 0 runs /datasets/cs240c-wi22-a00-public/data/Assignment2-gz/leslie3d_1116B.trace.gz
Heartbeat CPU 0 instructions: 1000001 cycles: 532936 heartbeat IPC: 1.8764 cumulative IPC: 1.8764 (Simulation time: 0 hr 3 min 49 sec) 
CPU 0 runs /datasets/cs240c-wi22-a00-public/data/Assignment2-gz/perlbench_135B.trace.gz
Heartbeat CPU 0 instructions: 1000000 cycles: 601490 heartbeat IPC: 1.66254 cumulative IPC: 1.66254 (Simulation time: 0 hr 3 min 49 sec) 
CPU 0 runs /datasets/cs240c-wi22-a00-public/data/Assignment2-gz/mcf_158B.trace.gz
Heartbeat CPU 0 instructions: 1000002 cycles: 496688 heartbeat IPC: 2.01334 cumulative IPC: 2.01334 (Simulation time: 0 hr 3 min 51 sec) 
CPU 0 runs /datasets/cs240c-wi22-a00-public/data/Assignment2-gz/cactusADM_1039B.trace.gz
Heartbeat CPU 0 instructions: 1000000 cycles: 595112 heartbeat IPC: 1.68036 cumulative IPC: 1.68036 (Simulation time: 0 hr 4 min 3 sec) 
CPU 0 runs /datasets/cs240c-wi22-a00-public/data/Assignment2-gz/GemsFDTD_712B.trace.gz
Heartbeat CPU 0 instructions: 1000003 cycles: 633083 heartbeat IPC: 1.57958 cumulative IPC: 1.57958 (Simulation time: 0 hr 4 min 5 sec) 
CPU 0 runs /datasets/cs240c-wi22-a00-public/data/Assignment2-gz/gcc_56B.trace.gz
Heartbeat CPU 0 instructions: 1000003 cycles: 954224 heartbeat IPC: 1.04798 cumulative IPC: 1.04798 (Simulation time: 0 hr 4 min 6 sec) 
CPU 0 runs /datasets/cs240c-wi22-a00-public/data/Assignment2-gz/cactusADM_734B.trace.gz
Heartbeat CPU 0 instructions: 1000003 cycles: 592365 heartbeat IPC: 1.68815 cumulative IPC: 1.68815 (Simulation time: 0 hr 4 min 6 sec) 
CPU 0 runs /datasets/cs240c-wi22-a00-public/data/Assignment2-gz/cactusADM_1495B.trace.gz
Heartbeat CPU 0 instructions: 1000003 cycles: 593354 heartbeat IPC: 1.68534 cumulative IPC: 1.68534 (Simulation time: 0 hr 4 min 8 sec) 
CPU 0 runs /datasets/cs240c-wi22-a00-public/data/Assignment2-gz/gcc_39B.trace.gz
Heartbeat CPU 0 instructions: 1000000 cycles: 510392 heartbeat IPC: 1.95928 cumulative IPC: 1.95928 (Simulation time: 0 hr 4 min 8 sec) 
CPU 0 runs /datasets/cs240c-wi22-a00-public/data/Assignment2-gz/mcf_250B.trace.gz
Heartbeat CPU 0 instructions: 1000000 cycles: 527122 heartbeat IPC: 1.89709 cumulative IPC: 1.89709 (Simulation time: 0 hr 4 min 10 sec) 
CPU 0 runs /datasets/cs240c-wi22-a00-public/data/Assignment2-gz/milc_360B.trace.gz
Heartbeat CPU 0 instructions: 1000001 cycles: 549889 heartbeat IPC: 1.81855 cumulative IPC: 1.81855 (Simulation time: 0 hr 4 min 11 sec) 
CPU 0 runs /datasets/cs240c-wi22-a00-public/data/Assignment2-gz/omnetpp_340B.trace.gz
Heartbeat CPU 0 instructions: 1000001 cycles: 578280 heartbeat IPC: 1.72927 cumulative IPC: 1.72927 (Simulation time: 0 hr 4 min 10 sec) 
CPU 0 runs /datasets/cs240c-wi22-a00-public/data/Assignment2-gz/astar_313B.trace.gz
Heartbeat CPU 0 instructions: 1000001 cycles: 678650 heartbeat IPC: 1.47352 cumulative IPC: 1.47352 (Simulation time: 0 hr 4 min 16 sec) 
CPU 0 runs /datasets/cs240c-wi22-a00-public/data/Assignment2-gz/GemsFDTD_109B.trace.gz
Heartbeat CPU 0 instructions: 1000002 cycles: 577063 heartbeat IPC: 1.73292 cumulative IPC: 1.73292 (Simulation time: 0 hr 4 min 25 sec) 
Heartbeat CPU 0 instructions: 2000001 cycles: 666677 heartbeat IPC: 3 cumulative IPC: 2.99995 (Simulation time: 0 hr 4 min 24 sec) 
CPU 0 runs /datasets/cs240c-wi22-a00-public/data/Assignment2-gz/wrf_1228B.trace.gz
Heartbeat CPU 0 instructions: 1000003 cycles: 590333 heartbeat IPC: 1.69396 cumulative IPC: 1.69396 (Simulation time: 0 hr 4 min 25 sec) 
CPU 0 runs /datasets/cs240c-wi22-a00-public/data/Assignment2-gz/leslie3d_1186B.trace.gz
Heartbeat CPU 0 instructions: 1000002 cycles: 557793 heartbeat IPC: 1.79278 cumulative IPC: 1.79278 (Simulation time: 0 hr 4 min 26 sec) 
Heartbeat CPU 0 instructions: 2000003 cycles: 666677 heartbeat IPC: 3.00001 cumulative IPC: 2.99996 (Simulation time: 0 hr 4 min 29 sec) 
CPU 0 runs /datasets/cs240c-wi22-a00-public/data/Assignment2-gz/leslie3d_94B.trace.gz
Heartbeat CPU 0 instructions: 1000003 cycles: 592147 heartbeat IPC: 1.68877 cumulative IPC: 1.68877 (Simulation time: 0 hr 4 min 33 sec) 
CPU 0 runs /datasets/cs240c-wi22-a00-public/data/Assignment2-gz/perlbench_53B.trace.gz
Heartbeat CPU 0 instructions: 1000000 cycles: 617122 heartbeat IPC: 1.62043 cumulative IPC: 1.62043 (Simulation time: 0 hr 4 min 35 sec) 
Heartbeat CPU 0 instructions: 2000000 cycles: 630173 heartbeat IPC: 3.17201 cumulative IPC: 3.17373 (Simulation time: 0 hr 4 min 39 sec) 
Heartbeat CPU 0 instructions: 2000001 cycles: 746536 heartbeat IPC: 2.66571 cumulative IPC: 2.67904 (Simulation time: 0 hr 5 min 5 sec) 
Heartbeat CPU 0 instructions: 2000002 cycles: 1133448 heartbeat IPC: 1.74328 cumulative IPC: 1.76453 (Simulation time: 0 hr 5 min 37 sec) 
Heartbeat CPU 0 instructions: 2000001 cycles: 1039679 heartbeat IPC: 1.92478 cumulative IPC: 1.92367 (Simulation time: 0 hr 5 min 43 sec) 
Heartbeat CPU 0 instructions: 2000001 cycles: 814374 heartbeat IPC: 2.45781 cumulative IPC: 2.45588 (Simulation time: 0 hr 5 min 53 sec) 
Heartbeat CPU 0 instructions: 2000001 cycles: 691941 heartbeat IPC: 2.82882 cumulative IPC: 2.89042 (Simulation time: 0 hr 6 min 2 sec) 
Heartbeat CPU 0 instructions: 2000003 cycles: 785321 heartbeat IPC: 2.53112 cumulative IPC: 2.54673 (Simulation time: 0 hr 6 min 9 sec) 
Heartbeat CPU 0 instructions: 2000001 cycles: 1135121 heartbeat IPC: 1.75968 cumulative IPC: 1.76193 (Simulation time: 0 hr 6 min 12 sec) 
Heartbeat CPU 0 instructions: 2000001 cycles: 928928 heartbeat IPC: 2.15304 cumulative IPC: 2.15302 (Simulation time: 0 hr 6 min 16 sec) 
Heartbeat CPU 0 instructions: 2000003 cycles: 1059161 heartbeat IPC: 1.81564 cumulative IPC: 1.88829 (Simulation time: 0 hr 6 min 20 sec) 
Heartbeat CPU 0 instructions: 2000000 cycles: 812709 heartbeat IPC: 2.56214 cumulative IPC: 2.46091 (Simulation time: 0 hr 6 min 21 sec) 
Heartbeat CPU 0 instructions: 2000002 cycles: 890341 heartbeat IPC: 2.0162 cumulative IPC: 2.24633 (Simulation time: 0 hr 6 min 21 sec) 
Heartbeat CPU 0 instructions: 2000002 cycles: 842794 heartbeat IPC: 2.34488 cumulative IPC: 2.37306 (Simulation time: 0 hr 6 min 26 sec) 
Heartbeat CPU 0 instructions: 2000001 cycles: 782981 heartbeat IPC: 2.55437 cumulative IPC: 2.55434 (Simulation time: 0 hr 6 min 32 sec) 
Heartbeat CPU 0 instructions: 2000000 cycles: 882634 heartbeat IPC: 2.08375 cumulative IPC: 2.26594 (Simulation time: 0 hr 6 min 34 sec) 
Heartbeat CPU 0 instructions: 2000001 cycles: 766759 heartbeat IPC: 2.60852 cumulative IPC: 2.60838 (Simulation time: 0 hr 6 min 36 sec) 
Heartbeat CPU 0 instructions: 2000000 cycles: 735301 heartbeat IPC: 2.51866 cumulative IPC: 2.71997 (Simulation time: 0 hr 6 min 36 sec) 
Heartbeat CPU 0 instructions: 2000000 cycles: 821532 heartbeat IPC: 2.44815 cumulative IPC: 2.43448 (Simulation time: 0 hr 6 min 38 sec) 
Heartbeat CPU 0 instructions: 2000002 cycles: 949743 heartbeat IPC: 2.10764 cumulative IPC: 2.10583 (Simulation time: 0 hr 6 min 42 sec) 
Heartbeat CPU 0 instructions: 3000000 cycles: 1000009 heartbeat IPC: 3.00001 cumulative IPC: 2.99997 (Simulation time: 0 hr 6 min 42 sec) 
Heartbeat CPU 0 instructions: 3000001 cycles: 989047 heartbeat IPC: 3.10202 cumulative IPC: 3.03322 (Simulation time: 0 hr 6 min 47 sec) 
Heartbeat CPU 0 instructions: 2000003 cycles: 797919 heartbeat IPC: 2.77345 cumulative IPC: 2.50652 (Simulation time: 0 hr 6 min 55 sec) 
Heartbeat CPU 0 instructions: 2000003 cycles: 830875 heartbeat IPC: 2.40744 cumulative IPC: 2.4071 (Simulation time: 0 hr 6 min 56 sec) 
Heartbeat CPU 0 instructions: 2000000 cycles: 1198243 heartbeat IPC: 1.66948 cumulative IPC: 1.66911 (Simulation time: 0 hr 6 min 57 sec) 
Heartbeat CPU 0 instructions: 2000003 cycles: 899728 heartbeat IPC: 2.20263 cumulative IPC: 2.2229 (Simulation time: 0 hr 7 min 1 sec) 
Heartbeat CPU 0 instructions: 2000003 cycles: 1060018 heartbeat IPC: 1.88949 cumulative IPC: 1.88676 (Simulation time: 0 hr 7 min 1 sec) 
Heartbeat CPU 0 instructions: 3000003 cycles: 945982 heartbeat IPC: 3.16648 cumulative IPC: 3.17131 (Simulation time: 0 hr 7 min 1 sec) 
Heartbeat CPU 0 instructions: 2000000 cycles: 1028660 heartbeat IPC: 1.94459 cumulative IPC: 1.94428 (Simulation time: 0 hr 7 min 2 sec) 
Heartbeat CPU 0 instructions: 2000001 cycles: 720965 heartbeat IPC: 2.77115 cumulative IPC: 2.77406 (Simulation time: 0 hr 7 min 4 sec) 
Heartbeat CPU 0 instructions: 2000001 cycles: 951159 heartbeat IPC: 1.98772 cumulative IPC: 2.1027 (Simulation time: 0 hr 7 min 24 sec) 
Heartbeat CPU 0 instructions: 2000001 cycles: 1257171 heartbeat IPC: 1.63281 cumulative IPC: 1.59087 (Simulation time: 0 hr 7 min 24 sec) 
Heartbeat CPU 0 instructions: 2000002 cycles: 967446 heartbeat IPC: 2.06064 cumulative IPC: 2.0673 (Simulation time: 0 hr 7 min 26 sec) 
Heartbeat CPU 0 instructions: 2000000 cycles: 1212073 heartbeat IPC: 1.63778 cumulative IPC: 1.65007 (Simulation time: 0 hr 7 min 27 sec) 
Heartbeat CPU 0 instructions: 2000002 cycles: 992336 heartbeat IPC: 2.01756 cumulative IPC: 2.01545 (Simulation time: 0 hr 7 min 28 sec) 
Heartbeat CPU 0 instructions: 2000001 cycles: 1164382 heartbeat IPC: 1.70561 cumulative IPC: 1.71765 (Simulation time: 0 hr 7 min 30 sec) 
Heartbeat CPU 0 instructions: 2000003 cycles: 1066398 heartbeat IPC: 1.87455 cumulative IPC: 1.87548 (Simulation time: 0 hr 7 min 37 sec) 
Heartbeat CPU 0 instructions: 3000002 cycles: 1121180 heartbeat IPC: 2.6692 cumulative IPC: 2.67575 (Simulation time: 0 hr 7 min 39 sec) 
Heartbeat CPU 0 instructions: 2000003 cycles: 861405 heartbeat IPC: 2.3124 cumulative IPC: 2.32179 (Simulation time: 0 hr 7 min 45 sec) 
Heartbeat CPU 0 instructions: 2000000 cycles: 1266014 heartbeat IPC: 1.57995 cumulative IPC: 1.57976 (Simulation time: 0 hr 7 min 51 sec) 
Heartbeat CPU 0 instructions: 2000000 cycles: 1186182 heartbeat IPC: 1.68682 cumulative IPC: 1.68608 (Simulation time: 0 hr 8 min 8 sec) 
Heartbeat CPU 0 instructions: 2000002 cycles: 1020757 heartbeat IPC: 1.95939 cumulative IPC: 1.95933 (Simulation time: 0 hr 8 min 9 sec) 
Heartbeat CPU 0 instructions: 3000001 cycles: 1768761 heartbeat IPC: 1.57403 cumulative IPC: 1.6961 (Simulation time: 0 hr 8 min 9 sec) 
Heartbeat CPU 0 instructions: 2000001 cycles: 1898520 heartbeat IPC: 1.05899 cumulative IPC: 1.05345 (Simulation time: 0 hr 8 min 12 sec) 
Heartbeat CPU 0 instructions: 2000001 cycles: 1185295 heartbeat IPC: 1.68654 cumulative IPC: 1.68734 (Simulation time: 0 hr 8 min 12 sec) 
Heartbeat CPU 0 instructions: 2000002 cycles: 1190036 heartbeat IPC: 1.68089 cumulative IPC: 1.68062 (Simulation time: 0 hr 8 min 13 sec) 
Heartbeat CPU 0 instructions: 2000002 cycles: 1100513 heartbeat IPC: 1.96009 cumulative IPC: 1.81734 (Simulation time: 0 hr 8 min 16 sec) 
Heartbeat CPU 0 instructions: 2000000 cycles: 1162467 heartbeat IPC: 1.71178 cumulative IPC: 1.72048 (Simulation time: 0 hr 8 min 19 sec) 
Heartbeat CPU 0 instructions: 2000003 cycles: 1099779 heartbeat IPC: 1.81855 cumulative IPC: 1.81855 (Simulation time: 0 hr 8 min 21 sec) 
Heartbeat CPU 0 instructions: 3000001 cycles: 1559976 heartbeat IPC: 1.92198 cumulative IPC: 1.92311 (Simulation time: 0 hr 8 min 24 sec) 
Heartbeat CPU 0 instructions: 2000003 cycles: 1028634 heartbeat IPC: 1.99398 cumulative IPC: 1.94433 (Simulation time: 0 hr 8 min 29 sec) 
Heartbeat CPU 0 instructions: 2000003 cycles: 1269377 heartbeat IPC: 1.69283 cumulative IPC: 1.57558 (Simulation time: 0 hr 8 min 34 sec) 
Heartbeat CPU 0 instructions: 3000003 cycles: 1221893 heartbeat IPC: 2.45388 cumulative IPC: 2.45521 (Simulation time: 0 hr 8 min 34 sec) 
Heartbeat CPU 0 instructions: 2000003 cycles: 1154104 heartbeat IPC: 1.73298 cumulative IPC: 1.73295 (Simulation time: 0 hr 8 min 43 sec) 
Heartbeat CPU 0 instructions: 4000000 cycles: 1333342 heartbeat IPC: 3 cumulative IPC: 2.99998 (Simulation time: 0 hr 8 min 42 sec) 
Heartbeat CPU 0 instructions: 3000002 cycles: 1175571 heartbeat IPC: 2.56246 cumulative IPC: 2.55195 (Simulation time: 0 hr 9 min 0 sec) 
Heartbeat CPU 0 instructions: 4000000 cycles: 1290772 heartbeat IPC: 3.31427 cumulative IPC: 3.09892 (Simulation time: 0 hr 9 min 12 sec) 
Heartbeat CPU 0 instructions: 2000001 cycles: 1255808 heartbeat IPC: 1.56572 cumulative IPC: 1.5926 (Simulation time: 0 hr 9 min 10 sec) 
Heartbeat CPU 0 instructions: 2000000 cycles: 1204527 heartbeat IPC: 1.54623 cumulative IPC: 1.6604 (Simulation time: 0 hr 9 min 15 sec) 
Heartbeat CPU 0 instructions: 3000000 cycles: 1081973 heartbeat IPC: 2.56389 cumulative IPC: 2.77271 (Simulation time: 0 hr 9 min 17 sec) 
Heartbeat CPU 0 instructions: 2000002 cycles: 1206651 heartbeat IPC: 1.62733 cumulative IPC: 1.65748 (Simulation time: 0 hr 9 min 19 sec) 
Heartbeat CPU 0 instructions: 3000003 cycles: 1393617 heartbeat IPC: 2.15198 cumulative IPC: 2.15267 (Simulation time: 0 hr 9 min 20 sec) 
Heartbeat CPU 0 instructions: 4000000 cycles: 1260334 heartbeat IPC: 3.18114 cumulative IPC: 3.17376 (Simulation time: 0 hr 9 min 22 sec) 
Heartbeat CPU 0 instructions: 3000000 cycles: 1211869 heartbeat IPC: 2.50526 cumulative IPC: 2.47552 (Simulation time: 0 hr 9 min 27 sec) 
Heartbeat CPU 0 instructions: 3000001 cycles: 1722310 heartbeat IPC: 1.70303 cumulative IPC: 1.74185 (Simulation time: 0 hr 9 min 29 sec) 
Heartbeat CPU 0 instructions: 3000002 cycles: 1602081 heartbeat IPC: 1.84189 cumulative IPC: 1.87257 (Simulation time: 0 hr 9 min 29 sec) 
Heartbeat CPU 0 instructions: 3000003 cycles: 1252498 heartbeat IPC: 2.44079 cumulative IPC: 2.39522 (Simulation time: 0 hr 9 min 34 sec) 
Heartbeat CPU 0 instructions: 3000003 cycles: 1181536 heartbeat IPC: 2.24098 cumulative IPC: 2.53907 (Simulation time: 0 hr 9 min 38 sec) 
Heartbeat CPU 0 instructions: 3000001 cycles: 1174398 heartbeat IPC: 2.55482 cumulative IPC: 2.5545 (Simulation time: 0 hr 9 min 42 sec) 
Heartbeat CPU 0 instructions: 3000003 cycles: 1294921 heartbeat IPC: 2.11243 cumulative IPC: 2.31675 (Simulation time: 0 hr 9 min 56 sec) 
Heartbeat CPU 0 instructions: 3000001 cycles: 1150170 heartbeat IPC: 2.60817 cumulative IPC: 2.60831 (Simulation time: 0 hr 10 min 3 sec) 
Heartbeat CPU 0 instructions: 3000002 cycles: 1425613 heartbeat IPC: 2.10141 cumulative IPC: 2.10436 (Simulation time: 0 hr 10 min 5 sec) 
Heartbeat CPU 0 instructions: 4000000 cycles: 1487470 heartbeat IPC: 2.73007 cumulative IPC: 2.68913 (Simulation time: 0 hr 10 min 9 sec) 
Heartbeat CPU 0 instructions: 3000001 cycles: 1546521 heartbeat IPC: 1.93102 cumulative IPC: 1.93984 (Simulation time: 0 hr 10 min 13 sec) 
Heartbeat CPU 0 instructions: 3000002 cycles: 1314505 heartbeat IPC: 2.41093 cumulative IPC: 2.28223 (Simulation time: 0 hr 10 min 15 sec) 
Heartbeat CPU 0 instructions: 3000000 cycles: 1360161 heartbeat IPC: 2.12847 cumulative IPC: 2.20562 (Simulation time: 0 hr 10 min 16 sec) 
Heartbeat CPU 0 instructions: 3000000 cycles: 1248883 heartbeat IPC: 2.21747 cumulative IPC: 2.40215 (Simulation time: 0 hr 10 min 17 sec) 
Heartbeat CPU 0 instructions: 3000001 cycles: 1797630 heartbeat IPC: 1.66837 cumulative IPC: 1.66886 (Simulation time: 0 hr 10 min 17 sec) 
Heartbeat CPU 0 instructions: 3000000 cycles: 1286935 heartbeat IPC: 2.19269 cumulative IPC: 2.33112 (Simulation time: 0 hr 10 min 23 sec) 
Heartbeat CPU 0 instructions: 3000002 cycles: 1589730 heartbeat IPC: 1.88782 cumulative IPC: 1.88711 (Simulation time: 0 hr 10 min 30 sec) 
Heartbeat CPU 0 instructions: 3000000 cycles: 1079917 heartbeat IPC: 2.78589 cumulative IPC: 2.77799 (Simulation time: 0 hr 10 min 34 sec) 
Heartbeat CPU 0 instructions: 3000000 cycles: 1735116 heartbeat IPC: 2.09229 cumulative IPC: 1.72899 (Simulation time: 0 hr 10 min 44 sec) 
Heartbeat CPU 0 instructions: 3000003 cycles: 1662939 heartbeat IPC: 1.28155 cumulative IPC: 1.80404 (Simulation time: 0 hr 10 min 46 sec) 
Heartbeat CPU 0 instructions: 5000001 cycles: 1666677 heartbeat IPC: 2.99999 cumulative IPC: 2.99998 (Simulation time: 0 hr 10 min 54 sec) 

Warmup complete CPU 0 instructions: 5000001 cycles: 1666677 (Simulation time: 0 hr 10 min 54 sec) 

Heartbeat CPU 0 instructions: 4000000 cycles: 2333544 heartbeat IPC: 1.77059 cumulative IPC: 1.71413 (Simulation time: 0 hr 10 min 59 sec) 
Heartbeat CPU 0 instructions: 3000001 cycles: 1726618 heartbeat IPC: 1.77861 cumulative IPC: 1.7375 (Simulation time: 0 hr 11 min 7 sec) 
Heartbeat CPU 0 instructions: 4000000 cycles: 2081696 heartbeat IPC: 1.91674 cumulative IPC: 1.92151 (Simulation time: 0 hr 11 min 10 sec) 
Heartbeat CPU 0 instructions: 3000000 cycles: 1488608 heartbeat IPC: 2.01502 cumulative IPC: 2.01531 (Simulation time: 0 hr 11 min 12 sec) 
Heartbeat CPU 0 instructions: 3000001 cycles: 1457648 heartbeat IPC: 1.97438 cumulative IPC: 2.05811 (Simulation time: 0 hr 11 min 13 sec) 
Heartbeat CPU 0 instructions: 3000000 cycles: 1483496 heartbeat IPC: 1.93779 cumulative IPC: 2.02225 (Simulation time: 0 hr 11 min 19 sec) 
Heartbeat CPU 0 instructions: 3000000 cycles: 1836606 heartbeat IPC: 1.6012 cumulative IPC: 1.63345 (Simulation time: 0 hr 11 min 19 sec) 
Heartbeat CPU 0 instructions: 3000003 cycles: 1600517 heartbeat IPC: 1.87224 cumulative IPC: 1.8744 (Simulation time: 0 hr 11 min 25 sec) 
Heartbeat CPU 0 instructions: 5000000 cycles: 1592498 heartbeat IPC: 3.31427 cumulative IPC: 3.13972 (Simulation time: 0 hr 11 min 32 sec) 

Warmup complete CPU 0 instructions: 5000004 cycles: 1592499 (Simulation time: 0 hr 11 min 32 sec) 

Heartbeat CPU 0 instructions: 4000000 cycles: 1629601 heartbeat IPC: 2.45273 cumulative IPC: 2.45459 (Simulation time: 0 hr 11 min 38 sec) 
Heartbeat CPU 0 instructions: 3000001 cycles: 1287146 heartbeat IPC: 2.34884 cumulative IPC: 2.33074 (Simulation time: 0 hr 11 min 42 sec) 
Heartbeat CPU 0 instructions: 5000000 cycles: 1576820 heartbeat IPC: 3.1597 cumulative IPC: 3.17094 (Simulation time: 0 hr 11 min 44 sec) 

Warmup complete CPU 0 instructions: 5000004 cycles: 1576821 (Simulation time: 0 hr 11 min 44 sec) 

Heartbeat CPU 0 instructions: 3000000 cycles: 1898465 heartbeat IPC: 1.58115 cumulative IPC: 1.58022 (Simulation time: 0 hr 11 min 55 sec) 
Heartbeat CPU 0 instructions: 4000000 cycles: 1565776 heartbeat IPC: 2.56275 cumulative IPC: 2.55464 (Simulation time: 0 hr 11 min 58 sec) 
Heartbeat CPU 0 instructions: 3000002 cycles: 1529819 heartbeat IPC: 1.9644 cumulative IPC: 1.96102 (Simulation time: 0 hr 12 min 6 sec) 
Heartbeat CPU 0 instructions: 3000003 cycles: 1779362 heartbeat IPC: 1.68583 cumulative IPC: 1.686 (Simulation time: 0 hr 12 min 18 sec) 
Heartbeat CPU 0 instructions: 4000000 cycles: 1526818 heartbeat IPC: 2.24797 cumulative IPC: 2.61983 (Simulation time: 0 hr 12 min 17 sec) 
Heartbeat CPU 0 instructions: 4000000 cycles: 1637807 heartbeat IPC: 2.59531 cumulative IPC: 2.44229 (Simulation time: 0 hr 12 min 17 sec) 
Heartbeat CPU 0 instructions: 3000000 cycles: 1708881 heartbeat IPC: 1.64374 cumulative IPC: 1.75553 (Simulation time: 0 hr 12 min 19 sec) 
Heartbeat CPU 0 instructions: 3000003 cycles: 1778084 heartbeat IPC: 1.68694 cumulative IPC: 1.68721 (Simulation time: 0 hr 12 min 21 sec) 
Heartbeat CPU 0 instructions: 4000000 cycles: 2087846 heartbeat IPC: 2.0586 cumulative IPC: 1.91585 (Simulation time: 0 hr 12 min 21 sec) 
Heartbeat CPU 0 instructions: 4000000 cycles: 1858062 heartbeat IPC: 2.1531 cumulative IPC: 2.15278 (Simulation time: 0 hr 12 min 25 sec) 
Heartbeat CPU 0 instructions: 3000001 cycles: 2885884 heartbeat IPC: 1.0128 cumulative IPC: 1.03954 (Simulation time: 0 hr 12 min 29 sec) 
Heartbeat CPU 0 instructions: 4000000 cycles: 2291536 heartbeat IPC: 1.75677 cumulative IPC: 1.74555 (Simulation time: 0 hr 12 min 30 sec) 
Heartbeat CPU 0 instructions: 3000003 cycles: 1946536 heartbeat IPC: 1.47676 cumulative IPC: 1.5412 (Simulation time: 0 hr 12 min 35 sec) 
Heartbeat CPU 0 instructions: 5000003 cycles: 1860159 heartbeat IPC: 2.68321 cumulative IPC: 2.68794 (Simulation time: 0 hr 12 min 37 sec) 

Warmup complete CPU 0 instructions: 5000003 cycles: 1860159 (Simulation time: 0 hr 12 min 37 sec) 

Heartbeat CPU 0 instructions: 3000003 cycles: 1785063 heartbeat IPC: 1.6806 cumulative IPC: 1.68061 (Simulation time: 0 hr 12 min 39 sec) 
Heartbeat CPU 0 instructions: 4000000 cycles: 1570633 heartbeat IPC: 2.52375 cumulative IPC: 2.54674 (Simulation time: 0 hr 12 min 41 sec) 
Heartbeat CPU 0 instructions: 3000001 cycles: 1760266 heartbeat IPC: 1.6728 cumulative IPC: 1.70429 (Simulation time: 0 hr 12 min 42 sec) 
Heartbeat CPU 0 instructions: 4000000 cycles: 1632016 heartbeat IPC: 2.38012 cumulative IPC: 2.45096 (Simulation time: 0 hr 12 min 46 sec) 
Heartbeat CPU 0 instructions: 3000001 cycles: 1649612 heartbeat IPC: 1.81873 cumulative IPC: 1.81861 (Simulation time: 0 hr 12 min 52 sec) 
Heartbeat CPU 0 instructions: 4000000 cycles: 1520014 heartbeat IPC: 2.95439 cumulative IPC: 2.63155 (Simulation time: 0 hr 12 min 54 sec) 
Heartbeat CPU 0 instructions: 4000000 cycles: 1633293 heartbeat IPC: 2.95532 cumulative IPC: 2.44904 (Simulation time: 0 hr 12 min 57 sec) 
Heartbeat CPU 0 instructions: 3000000 cycles: 1730552 heartbeat IPC: 1.73476 cumulative IPC: 1.73355 (Simulation time: 0 hr 13 min 5 sec) 
Heartbeat CPU 0 instructions: 3000002 cycles: 1512030 heartbeat IPC: 2.0687 cumulative IPC: 1.98409 (Simulation time: 0 hr 13 min 5 sec) 
Heartbeat CPU 0 instructions: 4000000 cycles: 1533552 heartbeat IPC: 2.60836 cumulative IPC: 2.60832 (Simulation time: 0 hr 13 min 22 sec) 
Heartbeat CPU 0 instructions: 4000000 cycles: 1753037 heartbeat IPC: 2.28033 cumulative IPC: 2.28175 (Simulation time: 0 hr 13 min 32 sec) 
Heartbeat CPU 0 instructions: 4000000 cycles: 1895811 heartbeat IPC: 2.12676 cumulative IPC: 2.10992 (Simulation time: 0 hr 13 min 32 sec) 
Heartbeat CPU 0 instructions: 4000000 cycles: 1722511 heartbeat IPC: 2.75976 cumulative IPC: 2.32219 (Simulation time: 0 hr 13 min 33 sec) 
Heartbeat CPU 0 instructions: 4000000 cycles: 2064469 heartbeat IPC: 1.93069 cumulative IPC: 1.93754 (Simulation time: 0 hr 13 min 34 sec) 
Heartbeat CPU 0 instructions: 4000000 cycles: 2396228 heartbeat IPC: 1.67057 cumulative IPC: 1.66929 (Simulation time: 0 hr 13 min 43 sec) 
Heartbeat CPU 0 instructions: 3000002 cycles: 1912368 heartbeat IPC: 1.52309 cumulative IPC: 1.56874 (Simulation time: 0 hr 13 min 45 sec) 
Heartbeat CPU 0 instructions: 5000000 cycles: 2602077 heartbeat IPC: 1.92167 cumulative IPC: 1.92154 (Simulation time: 0 hr 13 min 52 sec) 

Warmup complete CPU 0 instructions: 5000001 cycles: 2602078 (Simulation time: 0 hr 13 min 52 sec) 

Heartbeat CPU 0 instructions: 4000000 cycles: 1687034 heartbeat IPC: 2.28232 cumulative IPC: 2.37103 (Simulation time: 0 hr 13 min 58 sec) 
Heartbeat CPU 0 instructions: 5000002 cycles: 2892460 heartbeat IPC: 1.78918 cumulative IPC: 1.72863 (Simulation time: 0 hr 14 min 0 sec) 

Warmup complete CPU 0 instructions: 5000002 cycles: 2892460 (Simulation time: 0 hr 14 min 0 sec) 

Heartbeat CPU 0 instructions: 4000000 cycles: 1744228 heartbeat IPC: 2.18678 cumulative IPC: 2.29328 (Simulation time: 0 hr 14 min 1 sec) 
Heartbeat CPU 0 instructions: 4000000 cycles: 1441377 heartbeat IPC: 2.76656 cumulative IPC: 2.77512 (Simulation time: 0 hr 14 min 3 sec) 
Heartbeat CPU 0 instructions: 3000000 cycles: 1851615 heartbeat IPC: 1.54538 cumulative IPC: 1.62021 (Simulation time: 0 hr 14 min 7 sec) 
Heartbeat CPU 0 instructions: 4000000 cycles: 2119462 heartbeat IPC: 1.88774 cumulative IPC: 1.88727 (Simulation time: 0 hr 14 min 8 sec) 
Heartbeat CPU 0 instructions: 3000003 cycles: 1854549 heartbeat IPC: 1.54345 cumulative IPC: 1.61765 (Simulation time: 0 hr 14 min 7 sec) 
Heartbeat CPU 0 instructions: 4000000 cycles: 2212811 heartbeat IPC: 2.09339 cumulative IPC: 1.80766 (Simulation time: 0 hr 14 min 22 sec) 
Heartbeat CPU 0 instructions: 6000002 cycles: 3664216 heartbeat IPC: 0.500616 cumulative IPC: 0.500616 (Simulation time: 0 hr 14 min 30 sec) 
Heartbeat CPU 0 instructions: 5000001 cycles: 2037319 heartbeat IPC: 2.45268 cumulative IPC: 2.45421 (Simulation time: 0 hr 14 min 37 sec) 

Warmup complete CPU 0 instructions: 5000001 cycles: 2037319 (Simulation time: 0 hr 14 min 37 sec) 

Heartbeat CPU 0 instructions: 4000000 cycles: 2443180 heartbeat IPC: 1.28165 cumulative IPC: 1.63721 (Simulation time: 0 hr 14 min 39 sec) 
Heartbeat CPU 0 instructions: 4000000 cycles: 2306048 heartbeat IPC: 1.72583 cumulative IPC: 1.73457 (Simulation time: 0 hr 14 min 39 sec) 
Heartbeat CPU 0 instructions: 4000000 cycles: 1685678 heartbeat IPC: 2.50921 cumulative IPC: 2.37293 (Simulation time: 0 hr 14 min 46 sec) 
Heartbeat CPU 0 instructions: 4000000 cycles: 1928242 heartbeat IPC: 2.12497 cumulative IPC: 2.07443 (Simulation time: 0 hr 14 min 52 sec) 
Heartbeat CPU 0 instructions: 5000000 cycles: 1960914 heartbeat IPC: 2.53076 cumulative IPC: 2.54983 (Simulation time: 0 hr 15 min 1 sec) 

Warmup complete CPU 0 instructions: 5000004 cycles: 1960915 (Simulation time: 0 hr 15 min 1 sec) 

Heartbeat CPU 0 instructions: 4000000 cycles: 1983570 heartbeat IPC: 2.02036 cumulative IPC: 2.01657 (Simulation time: 0 hr 15 min 7 sec) 
Heartbeat CPU 0 instructions: 6000001 cycles: 4819666 heartbeat IPC: 0.30987 cumulative IPC: 0.309868 (Simulation time: 0 hr 15 min 8 sec) 
Heartbeat CPU 0 instructions: 4000000 cycles: 1993309 heartbeat IPC: 1.9615 cumulative IPC: 2.00671 (Simulation time: 0 hr 15 min 10 sec) 
Heartbeat CPU 0 instructions: 4000000 cycles: 2133433 heartbeat IPC: 1.87646 cumulative IPC: 1.87491 (Simulation time: 0 hr 15 min 11 sec) 
Heartbeat CPU 0 instructions: 5000003 cycles: 1865431 heartbeat IPC: 2.95323 cumulative IPC: 2.68035 (Simulation time: 0 hr 15 min 16 sec) 

Warmup complete CPU 0 instructions: 5000003 cycles: 1865431 (Simulation time: 0 hr 15 min 16 sec) 

Heartbeat CPU 0 instructions: 5000000 cycles: 2038240 heartbeat IPC: 2.4973 cumulative IPC: 2.4531 (Simulation time: 0 hr 15 min 19 sec) 

Warmup complete CPU 0 instructions: 5000001 cycles: 2038242 (Simulation time: 0 hr 15 min 20 sec) 

Heartbeat CPU 0 instructions: 6000001 cycles: 4802736 heartbeat IPC: 0.30999 cumulative IPC: 0.309989 (Simulation time: 0 hr 15 min 21 sec) 
Heartbeat CPU 0 instructions: 5000001 cycles: 2571024 heartbeat IPC: 2.06963 cumulative IPC: 1.94475 (Simulation time: 0 hr 15 min 25 sec) 

Warmup complete CPU 0 instructions: 5000001 cycles: 2571024 (Simulation time: 0 hr 15 min 25 sec) 

Heartbeat CPU 0 instructions: 5000000 cycles: 2865698 heartbeat IPC: 1.74167 cumulative IPC: 1.74478 (Simulation time: 0 hr 15 min 26 sec) 

Warmup complete CPU 0 instructions: 5000002 cycles: 2865699 (Simulation time: 0 hr 15 min 26 sec) 

Heartbeat CPU 0 instructions: 6000003 cycles: 2440238 heartbeat IPC: 1.7239 cumulative IPC: 1.7239 (Simulation time: 0 hr 15 min 36 sec) 
Heartbeat CPU 0 instructions: 5000003 cycles: 2322491 heartbeat IPC: 2.15319 cumulative IPC: 2.15286 (Simulation time: 0 hr 15 min 37 sec) 

Warmup complete CPU 0 instructions: 5000003 cycles: 2322491 (Simulation time: 0 hr 15 min 37 sec) 

Heartbeat CPU 0 instructions: 5000002 cycles: 1962082 heartbeat IPC: 2.55462 cumulative IPC: 2.54831 (Simulation time: 0 hr 15 min 37 sec) 

Warmup complete CPU 0 instructions: 5000002 cycles: 1962082 (Simulation time: 0 hr 15 min 37 sec) 

Heartbeat CPU 0 instructions: 4000000 cycles: 2497342 heartbeat IPC: 1.51346 cumulative IPC: 1.6017 (Simulation time: 0 hr 15 min 42 sec) 
Heartbeat CPU 0 instructions: 4000000 cycles: 2038994 heartbeat IPC: 1.96396 cumulative IPC: 1.96175 (Simulation time: 0 hr 15 min 46 sec) 
Heartbeat CPU 0 instructions: 5000001 cycles: 2022274 heartbeat IPC: 2.56241 cumulative IPC: 2.47246 (Simulation time: 0 hr 15 min 50 sec) 

Warmup complete CPU 0 instructions: 5000001 cycles: 2022274 (Simulation time: 0 hr 15 min 50 sec) 

Heartbeat CPU 0 instructions: 5000000 cycles: 1987099 heartbeat IPC: 2.82641 cumulative IPC: 2.51623 (Simulation time: 0 hr 15 min 55 sec) 

Warmup complete CPU 0 instructions: 5000004 cycles: 1987100 (Simulation time: 0 hr 15 min 55 sec) 

Heartbeat CPU 0 instructions: 4000000 cycles: 2530785 heartbeat IPC: 1.58148 cumulative IPC: 1.58054 (Simulation time: 0 hr 15 min 56 sec) 
Heartbeat CPU 0 instructions: 5000001 cycles: 1897377 heartbeat IPC: 2.64997 cumulative IPC: 2.63522 (Simulation time: 0 hr 16 min 10 sec) 

Warmup complete CPU 0 instructions: 5000001 cycles: 1897377 (Simulation time: 0 hr 16 min 10 sec) 

Heartbeat CPU 0 instructions: 4000000 cycles: 2372043 heartbeat IPC: 1.68724 cumulative IPC: 1.68631 (Simulation time: 0 hr 16 min 19 sec) 
Heartbeat CPU 0 instructions: 4000000 cycles: 2319750 heartbeat IPC: 1.63701 cumulative IPC: 1.72432 (Simulation time: 0 hr 16 min 21 sec) 
Heartbeat CPU 0 instructions: 4000000 cycles: 2370621 heartbeat IPC: 1.68765 cumulative IPC: 1.68732 (Simulation time: 0 hr 16 min 22 sec) 
Heartbeat CPU 0 instructions: 5000002 cycles: 2174874 heartbeat IPC: 2.37059 cumulative IPC: 2.29898 (Simulation time: 0 hr 16 min 28 sec) 

Warmup complete CPU 0 instructions: 5000002 cycles: 2174874 (Simulation time: 0 hr 16 min 28 sec) 

Heartbeat CPU 0 instructions: 6000001 cycles: 3075679 heartbeat IPC: 2.11148 cumulative IPC: 2.11148 (Simulation time: 0 hr 16 min 36 sec) 
Heartbeat CPU 0 instructions: 5000000 cycles: 2346967 heartbeat IPC: 2.21653 cumulative IPC: 2.13041 (Simulation time: 0 hr 16 min 40 sec) 

Warmup complete CPU 0 instructions: 5000003 cycles: 2346968 (Simulation time: 0 hr 16 min 40 sec) 

Heartbeat CPU 0 instructions: 4000000 cycles: 2622913 heartbeat IPC: 1.47846 cumulative IPC: 1.52502 (Simulation time: 0 hr 16 min 42 sec) 
Heartbeat CPU 0 instructions: 4000000 cycles: 3848630 heartbeat IPC: 1.03869 cumulative IPC: 1.03933 (Simulation time: 0 hr 16 min 42 sec) 
Heartbeat CPU 0 instructions: 5000001 cycles: 1916947 heartbeat IPC: 2.60828 cumulative IPC: 2.60831 (Simulation time: 0 hr 16 min 44 sec) 

Warmup complete CPU 0 instructions: 5000001 cycles: 1916947 (Simulation time: 0 hr 16 min 44 sec) 

Heartbeat CPU 0 instructions: 4000000 cycles: 2380257 heartbeat IPC: 1.68012 cumulative IPC: 1.68049 (Simulation time: 0 hr 16 min 44 sec) 
Heartbeat CPU 0 instructions: 5000001 cycles: 2072099 heartbeat IPC: 2.59697 cumulative IPC: 2.41301 (Simulation time: 0 hr 16 min 54 sec) 

Warmup complete CPU 0 instructions: 5000001 cycles: 2072099 (Simulation time: 0 hr 16 min 54 sec) 

Heartbeat CPU 0 instructions: 4000000 cycles: 2381698 heartbeat IPC: 1.60918 cumulative IPC: 1.67947 (Simulation time: 0 hr 16 min 58 sec) 
Heartbeat CPU 0 instructions: 5000001 cycles: 2582394 heartbeat IPC: 1.93078 cumulative IPC: 1.93619 (Simulation time: 0 hr 17 min 1 sec) 

Warmup complete CPU 0 instructions: 5000001 cycles: 2582394 (Simulation time: 0 hr 17 min 1 sec) 

Heartbeat CPU 0 instructions: 5000001 cycles: 2171314 heartbeat IPC: 2.22815 cumulative IPC: 2.30275 (Simulation time: 0 hr 17 min 7 sec) 

Warmup complete CPU 0 instructions: 5000001 cycles: 2171314 (Simulation time: 0 hr 17 min 7 sec) 

Heartbeat CPU 0 instructions: 6000000 cycles: 5641889 heartbeat IPC: 0.363711 cumulative IPC: 0.363711 (Simulation time: 0 hr 17 min 9 sec) 
Heartbeat CPU 0 instructions: 5000000 cycles: 2159515 heartbeat IPC: 2.40797 cumulative IPC: 2.31533 (Simulation time: 0 hr 17 min 11 sec) 

Warmup complete CPU 0 instructions: 5000001 cycles: 2159516 (Simulation time: 0 hr 17 min 11 sec) 

Heartbeat CPU 0 instructions: 4000000 cycles: 2199464 heartbeat IPC: 1.81867 cumulative IPC: 1.81862 (Simulation time: 0 hr 17 min 19 sec) 
Heartbeat CPU 0 instructions: 5000000 cycles: 2995748 heartbeat IPC: 1.668 cumulative IPC: 1.66903 (Simulation time: 0 hr 17 min 21 sec) 

Warmup complete CPU 0 instructions: 5000001 cycles: 2995749 (Simulation time: 0 hr 17 min 21 sec) 

Heartbeat CPU 0 instructions: 5000000 cycles: 1803459 heartbeat IPC: 2.76181 cumulative IPC: 2.77245 (Simulation time: 0 hr 17 min 27 sec) 

Warmup complete CPU 0 instructions: 5000004 cycles: 1803460 (Simulation time: 0 hr 17 min 27 sec) 

Heartbeat CPU 0 instructions: 5000000 cycles: 2651055 heartbeat IPC: 1.88114 cumulative IPC: 1.88604 (Simulation time: 0 hr 17 min 32 sec) 

Warmup complete CPU 0 instructions: 5000001 cycles: 2651058 (Simulation time: 0 hr 17 min 32 sec) 

Heartbeat CPU 0 instructions: 4000000 cycles: 2306712 heartbeat IPC: 1.73563 cumulative IPC: 1.73407 (Simulation time: 0 hr 17 min 34 sec) 
Heartbeat CPU 0 instructions: 5000002 cycles: 2690864 heartbeat IPC: 2.09182 cumulative IPC: 1.85814 (Simulation time: 0 hr 17 min 49 sec) 

Warmup complete CPU 0 instructions: 5000002 cycles: 2690864 (Simulation time: 0 hr 17 min 49 sec) 

Heartbeat CPU 0 instructions: 4000000 cycles: 2006345 heartbeat IPC: 2.023 cumulative IPC: 1.99368 (Simulation time: 0 hr 17 min 59 sec) 
Heartbeat CPU 0 instructions: 4000000 cycles: 2528843 heartbeat IPC: 1.62212 cumulative IPC: 1.58175 (Simulation time: 0 hr 18 min 0 sec) 
Heartbeat CPU 0 instructions: 7000001 cycles: 5849701 heartbeat IPC: 0.457564 cumulative IPC: 0.478123 (Simulation time: 0 hr 18 min 7 sec) 
Heartbeat CPU 0 instructions: 5000001 cycles: 2104126 heartbeat IPC: 2.38979 cumulative IPC: 2.37628 (Simulation time: 0 hr 18 min 19 sec) 

Warmup complete CPU 0 instructions: 5000001 cycles: 2104126 (Simulation time: 0 hr 18 min 19 sec) 

Heartbeat CPU 0 instructions: 6000000 cycles: 2905684 heartbeat IPC: 1.15159 cumulative IPC: 1.15159 (Simulation time: 0 hr 18 min 19 sec) 
Heartbeat CPU 0 instructions: 5000000 cycles: 3123579 heartbeat IPC: 1.46973 cumulative IPC: 1.60073 (Simulation time: 0 hr 18 min 27 sec) 

Warmup complete CPU 0 instructions: 5000004 cycles: 3123580 (Simulation time: 0 hr 18 min 27 sec) 

Heartbeat CPU 0 instructions: 5000000 cycles: 2425411 heartbeat IPC: 2.01139 cumulative IPC: 2.06151 (Simulation time: 0 hr 18 min 28 sec) 

Warmup complete CPU 0 instructions: 5000004 cycles: 2425412 (Simulation time: 0 hr 18 min 28 sec) 

Heartbeat CPU 0 instructions: 5000003 cycles: 2884306 heartbeat IPC: 1.72934 cumulative IPC: 1.73352 (Simulation time: 0 hr 18 min 32 sec) 

Warmup complete CPU 0 instructions: 5000003 cycles: 2884306 (Simulation time: 0 hr 18 min 32 sec) 

Heartbeat CPU 0 instructions: 5000001 cycles: 2666468 heartbeat IPC: 1.87605 cumulative IPC: 1.87514 (Simulation time: 0 hr 18 min 34 sec) 

Warmup complete CPU 0 instructions: 5000001 cycles: 2666468 (Simulation time: 0 hr 18 min 34 sec) 

Heartbeat CPU 0 instructions: 7000000 cycles: 2988311 heartbeat IPC: 1.82457 cumulative IPC: 1.77281 (Simulation time: 0 hr 18 min 37 sec) 
Heartbeat CPU 0 instructions: 6000000 cycles: 3438409 heartbeat IPC: 1.15289 cumulative IPC: 1.15289 (Simulation time: 0 hr 18 min 42 sec) 
Heartbeat CPU 0 instructions: 5000000 cycles: 2475874 heartbeat IPC: 2.07226 cumulative IPC: 2.01949 (Simulation time: 0 hr 18 min 44 sec) 

Warmup complete CPU 0 instructions: 5000004 cycles: 2475875 (Simulation time: 0 hr 18 min 44 sec) 

Heartbeat CPU 0 instructions: 6000002 cycles: 3209932 heartbeat IPC: 0.74377 cumulative IPC: 0.74377 (Simulation time: 0 hr 18 min 44 sec) 
Heartbeat CPU 0 instructions: 7000002 cycles: 8041041 heartbeat IPC: 0.310427 cumulative IPC: 0.310147 (Simulation time: 0 hr 18 min 45 sec) 
Heartbeat CPU 0 instructions: 4000000 cycles: 2452142 heartbeat IPC: 1.6652 cumulative IPC: 1.63123 (Simulation time: 0 hr 18 min 45 sec) 
Heartbeat CPU 0 instructions: 7000001 cycles: 7987048 heartbeat IPC: 0.31404 cumulative IPC: 0.312001 (Simulation time: 0 hr 18 min 53 sec) 
Heartbeat CPU 0 instructions: 6000002 cycles: 3612108 heartbeat IPC: 0.605624 cumulative IPC: 0.605622 (Simulation time: 0 hr 18 min 59 sec) 
Heartbeat CPU 0 instructions: 6000002 cycles: 5736095 heartbeat IPC: 0.348385 cumulative IPC: 0.348384 (Simulation time: 0 hr 19 min 1 sec) 
Heartbeat CPU 0 instructions: 4000000 cycles: 2502128 heartbeat IPC: 1.54421 cumulative IPC: 1.59864 (Simulation time: 0 hr 19 min 2 sec) 
Heartbeat CPU 0 instructions: 5000002 cycles: 2477151 heartbeat IPC: 2.02601 cumulative IPC: 2.01845 (Simulation time: 0 hr 19 min 3 sec) 

Warmup complete CPU 0 instructions: 5000002 cycles: 2477151 (Simulation time: 0 hr 19 min 3 sec) 

Heartbeat CPU 0 instructions: 6000001 cycles: 3243959 heartbeat IPC: 1.08522 cumulative IPC: 1.08522 (Simulation time: 0 hr 19 min 11 sec) 
Heartbeat CPU 0 instructions: 7000001 cycles: 3552712 heartbeat IPC: 2.09629 cumulative IPC: 2.10386 (Simulation time: 0 hr 19 min 12 sec) 
Heartbeat CPU 0 instructions: 6000000 cycles: 4955746 heartbeat IPC: 0.342759 cumulative IPC: 0.342758 (Simulation time: 0 hr 19 min 12 sec) 
Heartbeat CPU 0 instructions: 5000001 cycles: 3085110 heartbeat IPC: 1.70135 cumulative IPC: 1.62069 (Simulation time: 0 hr 19 min 14 sec) 

Warmup complete CPU 0 instructions: 5000001 cycles: 3085110 (Simulation time: 0 hr 19 min 14 sec) 

Heartbeat CPU 0 instructions: 5000003 cycles: 3163479 heartbeat IPC: 1.58055 cumulative IPC: 1.58054 (Simulation time: 0 hr 19 min 31 sec) 

Warmup complete CPU 0 instructions: 5000003 cycles: 3163479 (Simulation time: 0 hr 19 min 31 sec) 

Heartbeat CPU 0 instructions: 6000002 cycles: 3568284 heartbeat IPC: 0.622587 cumulative IPC: 0.622587 (Simulation time: 0 hr 19 min 32 sec) 
Heartbeat CPU 0 instructions: 6000001 cycles: 2984440 heartbeat IPC: 1.5687 cumulative IPC: 1.56869 (Simulation time: 0 hr 19 min 34 sec) 
Heartbeat CPU 0 instructions: 5000003 cycles: 2548012 heartbeat IPC: 1.96457 cumulative IPC: 1.96232 (Simulation time: 0 hr 19 min 41 sec) 

Warmup complete CPU 0 instructions: 5000003 cycles: 2548012 (Simulation time: 0 hr 19 min 41 sec) 

Heartbeat CPU 0 instructions: 6000002 cycles: 2981822 heartbeat IPC: 0.922132 cumulative IPC: 0.922132 (Simulation time: 0 hr 19 min 45 sec) 
Heartbeat CPU 0 instructions: 6000000 cycles: 3551818 heartbeat IPC: 0.726245 cumulative IPC: 0.726245 (Simulation time: 0 hr 19 min 47 sec) 
Heartbeat CPU 0 instructions: 6000000 cycles: 3827058 heartbeat IPC: 0.554082 cumulative IPC: 0.554082 (Simulation time: 0 hr 19 min 54 sec) 
Heartbeat CPU 0 instructions: 6000000 cycles: 4575850 heartbeat IPC: 0.386287 cumulative IPC: 0.386285 (Simulation time: 0 hr 20 min 3 sec) 
Heartbeat CPU 0 instructions: 6000000 cycles: 4171641 heartbeat IPC: 0.476294 cumulative IPC: 0.476294 (Simulation time: 0 hr 20 min 12 sec) 
Heartbeat CPU 0 instructions: 5000000 cycles: 3014867 heartbeat IPC: 1.43861 cumulative IPC: 1.65845 (Simulation time: 0 hr 20 min 25 sec) 

Warmup complete CPU 0 instructions: 5000004 cycles: 3014869 (Simulation time: 0 hr 20 min 25 sec) 

Heartbeat CPU 0 instructions: 5000000 cycles: 2964991 heartbeat IPC: 1.68649 cumulative IPC: 1.68635 (Simulation time: 0 hr 20 min 30 sec) 

Warmup complete CPU 0 instructions: 5000004 cycles: 2964992 (Simulation time: 0 hr 20 min 30 sec) 

Heartbeat CPU 0 instructions: 7000000 cycles: 9278211 heartbeat IPC: 0.275003 cumulative IPC: 0.313197 (Simulation time: 0 hr 20 min 37 sec) 
Heartbeat CPU 0 instructions: 5000000 cycles: 2963700 heartbeat IPC: 1.68612 cumulative IPC: 1.68708 (Simulation time: 0 hr 20 min 43 sec) 

Warmup complete CPU 0 instructions: 5000004 cycles: 2963701 (Simulation time: 0 hr 20 min 43 sec) 

Heartbeat CPU 0 instructions: 5000002 cycles: 2957206 heartbeat IPC: 1.7376 cumulative IPC: 1.69079 (Simulation time: 0 hr 20 min 42 sec) 

Warmup complete CPU 0 instructions: 5000002 cycles: 2957206 (Simulation time: 0 hr 20 min 42 sec) 

Heartbeat CPU 0 instructions: 5000002 cycles: 4738254 heartbeat IPC: 1.12407 cumulative IPC: 1.05524 (Simulation time: 0 hr 20 min 46 sec) 

Warmup complete CPU 0 instructions: 5000002 cycles: 4738254 (Simulation time: 0 hr 20 min 46 sec) 

Heartbeat CPU 0 instructions: 6000000 cycles: 3833180 heartbeat IPC: 0.521857 cumulative IPC: 0.521857 (Simulation time: 0 hr 20 min 47 sec) 
Heartbeat CPU 0 instructions: 6000000 cycles: 4588330 heartbeat IPC: 0.359083 cumulative IPC: 0.359082 (Simulation time: 0 hr 20 min 55 sec) 
Heartbeat CPU 0 instructions: 5000002 cycles: 3298794 heartbeat IPC: 1.47955 cumulative IPC: 1.51571 (Simulation time: 0 hr 20 min 59 sec) 

Warmup complete CPU 0 instructions: 5000002 cycles: 3298794 (Simulation time: 0 hr 20 min 59 sec) 

Heartbeat CPU 0 instructions: 5000001 cycles: 2975033 heartbeat IPC: 1.68131 cumulative IPC: 1.68065 (Simulation time: 0 hr 21 min 6 sec) 

Warmup complete CPU 0 instructions: 5000001 cycles: 2975033 (Simulation time: 0 hr 21 min 7 sec) 

Heartbeat CPU 0 instructions: 6000003 cycles: 4216266 heartbeat IPC: 0.612044 cumulative IPC: 0.612044 (Simulation time: 0 hr 21 min 34 sec) 
Heartbeat CPU 0 instructions: 8000000 cycles: 3535767 heartbeat IPC: 1.82663 cumulative IPC: 1.79039 (Simulation time: 0 hr 21 min 36 sec) 
Heartbeat CPU 0 instructions: 6000000 cycles: 4821686 heartbeat IPC: 0.460696 cumulative IPC: 0.460696 (Simulation time: 0 hr 21 min 36 sec) 
Heartbeat CPU 0 instructions: 6000001 cycles: 3900218 heartbeat IPC: 0.678056 cumulative IPC: 0.678053 (Simulation time: 0 hr 21 min 42 sec) 
Heartbeat CPU 0 instructions: 8000000 cycles: 8143711 heartbeat IPC: 0.435917 cumulative IPC: 0.463175 (Simulation time: 0 hr 21 min 41 sec) 
Heartbeat CPU 0 instructions: 5000002 cycles: 2749347 heartbeat IPC: 1.81857 cumulative IPC: 1.81861 (Simulation time: 0 hr 21 min 46 sec) 

Warmup complete CPU 0 instructions: 5000002 cycles: 2749347 (Simulation time: 0 hr 21 min 46 sec) 

Heartbeat CPU 0 instructions: 6000002 cycles: 3131508 heartbeat IPC: 0.973349 cumulative IPC: 0.973349 (Simulation time: 0 hr 21 min 49 sec) 
Heartbeat CPU 0 instructions: 5000000 cycles: 2883649 heartbeat IPC: 1.73329 cumulative IPC: 1.73391 (Simulation time: 0 hr 21 min 56 sec) 

Warmup complete CPU 0 instructions: 5000004 cycles: 2883650 (Simulation time: 0 hr 21 min 56 sec) 

Heartbeat CPU 0 instructions: 7000002 cycles: 3778956 heartbeat IPC: 1.14512 cumulative IPC: 1.14835 (Simulation time: 0 hr 21 min 56 sec) 
Heartbeat CPU 0 instructions: 6000003 cycles: 5415353 heartbeat IPC: 0.436345 cumulative IPC: 0.436343 (Simulation time: 0 hr 22 min 0 sec) 
Heartbeat CPU 0 instructions: 6000001 cycles: 4812623 heartbeat IPC: 0.550396 cumulative IPC: 0.550396 (Simulation time: 0 hr 22 min 2 sec) 
Heartbeat CPU 0 instructions: 6000000 cycles: 3507343 heartbeat IPC: 0.741934 cumulative IPC: 0.741934 (Simulation time: 0 hr 22 min 3 sec) 
Heartbeat CPU 0 instructions: 7000000 cycles: 4389588 heartbeat IPC: 1.05133 cumulative IPC: 1.09977 (Simulation time: 0 hr 22 min 6 sec) 
Heartbeat CPU 0 instructions: 8000000 cycles: 4026025 heartbeat IPC: 2.11276 cumulative IPC: 2.10682 (Simulation time: 0 hr 22 min 17 sec) 
Heartbeat CPU 0 instructions: 7000001 cycles: 4333276 heartbeat IPC: 0.890198 cumulative IPC: 0.810423 (Simulation time: 0 hr 22 min 17 sec) 
Heartbeat CPU 0 instructions: 6000003 cycles: 7022958 heartbeat IPC: 0.230835 cumulative IPC: 0.230835 (Simulation time: 0 hr 22 min 21 sec) 
Heartbeat CPU 0 instructions: 8000000 cycles: 11186317 heartbeat IPC: 0.312571 cumulative IPC: 0.312191 (Simulation time: 0 hr 22 min 25 sec) 
Heartbeat CPU 0 instructions: 8000000 cycles: 11175679 heartbeat IPC: 0.319015 cumulative IPC: 0.313048 (Simulation time: 0 hr 22 min 31 sec) 
Heartbeat CPU 0 instructions: 6000001 cycles: 4053675 heartbeat IPC: 0.720873 cumulative IPC: 0.720873 (Simulation time: 0 hr 22 min 38 sec) 
Heartbeat CPU 0 instructions: 7000000 cycles: 8745658 heartbeat IPC: 0.332273 cumulative IPC: 0.340138 (Simulation time: 0 hr 22 min 40 sec) 
Heartbeat CPU 0 instructions: 7000002 cycles: 4764689 heartbeat IPC: 0.824492 cumulative IPC: 0.772256 (Simulation time: 0 hr 22 min 44 sec) 
Heartbeat CPU 0 instructions: 7000002 cycles: 7604749 heartbeat IPC: 0.377501 cumulative IPC: 0.359292 (Simulation time: 0 hr 22 min 44 sec) 
Heartbeat CPU 0 instructions: 6000000 cycles: 6821840 heartbeat IPC: 0.215029 cumulative IPC: 0.215029 (Simulation time: 0 hr 22 min 47 sec) 
Heartbeat CPU 0 instructions: 7000000 cycles: 3542426 heartbeat IPC: 1.79216 cumulative IPC: 1.673 (Simulation time: 0 hr 22 min 48 sec) 
Heartbeat CPU 0 instructions: 5000001 cycles: 3158592 heartbeat IPC: 1.58794 cumulative IPC: 1.58298 (Simulation time: 0 hr 22 min 50 sec) 

Warmup complete CPU 0 instructions: 5000001 cycles: 3158592 (Simulation time: 0 hr 22 min 50 sec) 

Heartbeat CPU 0 instructions: 7000001 cycles: 4166510 heartbeat IPC: 1.08395 cumulative IPC: 1.08459 (Simulation time: 0 hr 22 min 52 sec) 
Heartbeat CPU 0 instructions: 7000000 cycles: 5312248 heartbeat IPC: 0.588186 cumulative IPC: 0.596776 (Simulation time: 0 hr 23 min 3 sec) 
Heartbeat CPU 0 instructions: 5000002 cycles: 2497196 heartbeat IPC: 2.03728 cumulative IPC: 2.00225 (Simulation time: 0 hr 23 min 4 sec) 

Warmup complete CPU 0 instructions: 5000002 cycles: 2497196 (Simulation time: 0 hr 23 min 4 sec) 

Heartbeat CPU 0 instructions: 6000003 cycles: 5728197 heartbeat IPC: 0.378346 cumulative IPC: 0.378346 (Simulation time: 0 hr 23 min 19 sec) 
Heartbeat CPU 0 instructions: 8000000 cycles: 10324533 heartbeat IPC: 0.955729 cumulative IPC: 0.403656 (Simulation time: 0 hr 23 min 24 sec) 
Heartbeat CPU 0 instructions: 7000003 cycles: 5296229 heartbeat IPC: 0.578723 cumulative IPC: 0.599854 (Simulation time: 0 hr 23 min 41 sec) 
Heartbeat CPU 0 instructions: 5000000 cycles: 3058276 heartbeat IPC: 1.6498 cumulative IPC: 1.63491 (Simulation time: 0 hr 23 min 44 sec) 

Warmup complete CPU 0 instructions: 5000002 cycles: 3058277 (Simulation time: 0 hr 23 min 44 sec) 

Heartbeat CPU 0 instructions: 5000002 cycles: 3062836 heartbeat IPC: 1.78346 cumulative IPC: 1.63247 (Simulation time: 0 hr 23 min 48 sec) 

Warmup complete CPU 0 instructions: 5000002 cycles: 3062836 (Simulation time: 0 hr 23 min 48 sec) 

Heartbeat CPU 0 instructions: 6000003 cycles: 5270109 heartbeat IPC: 0.419146 cumulative IPC: 0.419146 (Simulation time: 0 hr 23 min 49 sec) 
Heartbeat CPU 0 instructions: 7000000 cycles: 4552339 heartbeat IPC: 0.636732 cumulative IPC: 0.753306 (Simulation time: 0 hr 23 min 51 sec) 
Heartbeat CPU 0 instructions: 7000000 cycles: 7710367 heartbeat IPC: 0.320304 cumulative IPC: 0.338586 (Simulation time: 0 hr 24 min 13 sec) 
Heartbeat CPU 0 instructions: 6000000 cycles: 3914634 heartbeat IPC: 0.731729 cumulative IPC: 0.731729 (Simulation time: 0 hr 24 min 21 sec) 
Heartbeat CPU 0 instructions: 7000000 cycles: 7001751 heartbeat IPC: 0.412218 cumulative IPC: 0.398831 (Simulation time: 0 hr 24 min 20 sec) 
Heartbeat CPU 0 instructions: 7000001 cycles: 5649189 heartbeat IPC: 0.548809 cumulative IPC: 0.551433 (Simulation time: 0 hr 24 min 23 sec) 
Heartbeat CPU 0 instructions: 6000003 cycles: 9556858 heartbeat IPC: 0.141224 cumulative IPC: 0.141223 (Simulation time: 0 hr 24 min 30 sec) 
Heartbeat CPU 0 instructions: 7000002 cycles: 5762001 heartbeat IPC: 0.518452 cumulative IPC: 0.520149 (Simulation time: 0 hr 24 min 31 sec) 
Heartbeat CPU 0 instructions: 6000001 cycles: 4989557 heartbeat IPC: 0.493934 cumulative IPC: 0.493932 (Simulation time: 0 hr 24 min 44 sec) 
Heartbeat CPU 0 instructions: 9000000 cycles: 4082145 heartbeat IPC: 1.83023 cumulative IPC: 1.80019 (Simulation time: 0 hr 24 min 49 sec) 
Heartbeat CPU 0 instructions: 6000002 cycles: 6546502 heartbeat IPC: 0.295593 cumulative IPC: 0.295593 (Simulation time: 0 hr 24 min 56 sec) 
Heartbeat CPU 0 instructions: 7000001 cycles: 8975357 heartbeat IPC: 0.208172 cumulative IPC: 0.289718 (Simulation time: 0 hr 24 min 59 sec) 
Heartbeat CPU 0 instructions: 6000002 cycles: 4822167 heartbeat IPC: 0.553313 cumulative IPC: 0.553311 (Simulation time: 0 hr 25 min 2 sec) 
Heartbeat CPU 0 instructions: 7000003 cycles: 4155251 heartbeat IPC: 0.976809 cumulative IPC: 0.975076 (Simulation time: 0 hr 25 min 5 sec) 
Heartbeat CPU 0 instructions: 6000000 cycles: 6128534 heartbeat IPC: 0.719278 cumulative IPC: 0.719278 (Simulation time: 0 hr 25 min 6 sec) 
Heartbeat CPU 0 instructions: 9000001 cycles: 4502728 heartbeat IPC: 2.09774 cumulative IPC: 2.10454 (Simulation time: 0 hr 25 min 8 sec) 
Heartbeat CPU 0 instructions: 6000002 cycles: 5078548 heartbeat IPC: 0.472848 cumulative IPC: 0.472847 (Simulation time: 0 hr 25 min 15 sec) 
Heartbeat CPU 0 instructions: 8000000 cycles: 4648701 heartbeat IPC: 1.14976 cumulative IPC: 1.14882 (Simulation time: 0 hr 25 min 15 sec) 
Heartbeat CPU 0 instructions: 7000001 cycles: 5479144 heartbeat IPC: 0.633342 cumulative IPC: 0.654935 (Simulation time: 0 hr 25 min 19 sec) 
Heartbeat CPU 0 instructions: 8000000 cycles: 5410837 heartbeat IPC: 0.979193 cumulative IPC: 1.05641 (Simulation time: 0 hr 25 min 26 sec) 
Heartbeat CPU 0 instructions: 9000001 cycles: 10442059 heartbeat IPC: 0.435096 cumulative IPC: 0.455821 (Simulation time: 0 hr 25 min 28 sec) 
Heartbeat CPU 0 instructions: 6000001 cycles: 14513728 heartbeat IPC: 0.08308 cumulative IPC: 0.08308 (Simulation time: 0 hr 25 min 30 sec) 
Heartbeat CPU 0 instructions: 7000001 cycles: 7001647 heartbeat IPC: 0.458724 cumulative IPC: 0.459708 (Simulation time: 0 hr 25 min 38 sec) 
Heartbeat CPU 0 instructions: 8000000 cycles: 5878661 heartbeat IPC: 0.897687 cumulative IPC: 0.809981 (Simulation time: 0 hr 25 min 39 sec) 
Heartbeat CPU 0 instructions: 9000002 cycles: 14420761 heartbeat IPC: 0.309173 cumulative IPC: 0.311431 (Simulation time: 0 hr 25 min 42 sec) 
Heartbeat CPU 0 instructions: 6000002 cycles: 5097132 heartbeat IPC: 0.471232 cumulative IPC: 0.471232 (Simulation time: 0 hr 25 min 57 sec) 
Heartbeat CPU 0 instructions: 7000000 cycles: 8665538 heartbeat IPC: 0.542388 cumulative IPC: 0.307966 (Simulation time: 0 hr 25 min 58 sec) 
Heartbeat CPU 0 instructions: 8000000 cycles: 4095056 heartbeat IPC: 1.80953 cumulative IPC: 1.71616 (Simulation time: 0 hr 26 min 0 sec) 
Heartbeat CPU 0 instructions: 8000000 cycles: 12175178 heartbeat IPC: 0.291586 cumulative IPC: 0.322252 (Simulation time: 0 hr 26 min 5 sec) 
Heartbeat CPU 0 instructions: 9000001 cycles: 11372091 heartbeat IPC: 0.954602 cumulative IPC: 0.471719 (Simulation time: 0 hr 26 min 5 sec) 
Heartbeat CPU 0 instructions: 7000002 cycles: 7627548 heartbeat IPC: 0.452039 cumulative IPC: 0.444052 (Simulation time: 0 hr 26 min 8 sec) 
Heartbeat CPU 0 instructions: 9000000 cycles: 13182200 heartbeat IPC: 0.498375 cumulative IPC: 0.345134 (Simulation time: 0 hr 26 min 14 sec) 
Heartbeat CPU 0 instructions: 8000000 cycles: 5777208 heartbeat IPC: 0.692553 cumulative IPC: 0.766914 (Simulation time: 0 hr 26 min 14 sec) 
Heartbeat CPU 0 instructions: 7000000 cycles: 5841926 heartbeat IPC: 0.615133 cumulative IPC: 0.613585 (Simulation time: 0 hr 26 min 19 sec) 
Heartbeat CPU 0 instructions: 8000000 cycles: 5089521 heartbeat IPC: 1.08341 cumulative IPC: 1.08419 (Simulation time: 0 hr 26 min 23 sec) 
Heartbeat CPU 0 instructions: 7000001 cycles: 6602001 heartbeat IPC: 0.558853 cumulative IPC: 0.554592 (Simulation time: 0 hr 26 min 28 sec) 
Heartbeat CPU 0 instructions: 6000003 cycles: 7549197 heartbeat IPC: 0.217771 cumulative IPC: 0.217771 (Simulation time: 0 hr 26 min 38 sec) 
Heartbeat CPU 0 instructions: 7000000 cycles: 4855253 heartbeat IPC: 0.741889 cumulative IPC: 0.741912 (Simulation time: 0 hr 26 min 41 sec) 
Heartbeat CPU 0 instructions: 8000000 cycles: 6882497 heartbeat IPC: 0.636842 cumulative IPC: 0.609559 (Simulation time: 0 hr 27 min 10 sec) 
Heartbeat CPU 0 instructions: 7000000 cycles: 5582729 heartbeat IPC: 0.653998 cumulative IPC: 0.685809 (Simulation time: 0 hr 27 min 10 sec) 
Heartbeat CPU 0 instructions: 7000002 cycles: 11411923 heartbeat IPC: 0.227844 cumulative IPC: 0.22933 (Simulation time: 0 hr 27 min 11 sec) 
Heartbeat CPU 0 instructions: 6000001 cycles: 13071183 heartbeat IPC: 0.102329 cumulative IPC: 0.102329 (Simulation time: 0 hr 27 min 11 sec) 
Heartbeat CPU 0 instructions: 8000000 cycles: 11329735 heartbeat IPC: 0.268457 cumulative IPC: 0.322876 (Simulation time: 0 hr 27 min 13 sec) 
Heartbeat CPU 0 instructions: 6000001 cycles: 4697697 heartbeat IPC: 0.513254 cumulative IPC: 0.513254 (Simulation time: 0 hr 27 min 16 sec) 
Heartbeat CPU 0 instructions: 8000000 cycles: 10505242 heartbeat IPC: 0.357798 cumulative IPC: 0.344757 (Simulation time: 0 hr 27 min 25 sec) 
Heartbeat CPU 0 instructions: 8000000 cycles: 5719097 heartbeat IPC: 0.857076 cumulative IPC: 0.784987 (Simulation time: 0 hr 27 min 28 sec) 
Heartbeat CPU 0 instructions: 8000000 cycles: 6837881 heartbeat IPC: 0.648653 cumulative IPC: 0.615283 (Simulation time: 0 hr 27 min 29 sec) 
Heartbeat CPU 0 instructions: 7000000 cycles: 8383151 heartbeat IPC: 0.376653 cumulative IPC: 0.377498 (Simulation time: 0 hr 27 min 36 sec) 
Heartbeat CPU 0 instructions: 6000000 cycles: 5523758 heartbeat IPC: 0.378772 cumulative IPC: 0.378771 (Simulation time: 0 hr 27 min 43 sec) 
Heartbeat CPU 0 instructions: 8000000 cycles: 7693226 heartbeat IPC: 0.517805 cumulative IPC: 0.519365 (Simulation time: 0 hr 27 min 54 sec) 
Heartbeat CPU 0 instructions: 8000000 cycles: 8627587 heartbeat IPC: 0.615068 cumulative IPC: 0.451773 (Simulation time: 0 hr 27 min 54 sec) 
Heartbeat CPU 0 instructions: 10000001 cycles: 4976169 heartbeat IPC: 2.1122 cumulative IPC: 2.10607 (Simulation time: 0 hr 28 min 4 sec) 
Heartbeat CPU 0 instructions: 10000002 cycles: 5048303 heartbeat IPC: 1.03503 cumulative IPC: 1.56831 (Simulation time: 0 hr 28 min 10 sec) 
Heartbeat CPU 0 instructions: 9000000 cycles: 7186944 heartbeat IPC: 0.764361 cumulative IPC: 0.798073 (Simulation time: 0 hr 28 min 31 sec) 
Heartbeat CPU 0 instructions: 8000000 cycles: 5218976 heartbeat IPC: 0.94009 cumulative IPC: 0.963128 (Simulation time: 0 hr 28 min 31 sec) 
Heartbeat CPU 0 instructions: 9000000 cycles: 5522095 heartbeat IPC: 1.14496 cumulative IPC: 1.14785 (Simulation time: 0 hr 28 min 32 sec) 
Heartbeat CPU 0 instructions: 9000000 cycles: 6353546 heartbeat IPC: 1.06077 cumulative IPC: 1.0575 (Simulation time: 0 hr 28 min 34 sec) 
Heartbeat CPU 0 instructions: 10000003 cycles: 12417948 heartbeat IPC: 0.956156 cumulative IPC: 0.524908 (Simulation time: 0 hr 28 min 37 sec) 
Heartbeat CPU 0 instructions: 8000000 cycles: 7333445 heartbeat IPC: 0.593733 cumulative IPC: 0.564847 (Simulation time: 0 hr 28 min 43 sec) 
Heartbeat CPU 0 instructions: 8000000 cycles: 6701467 heartbeat IPC: 0.818114 cumulative IPC: 0.70158 (Simulation time: 0 hr 28 min 56 sec) 
Heartbeat CPU 0 instructions: 6000001 cycles: 5872632 heartbeat IPC: 0.368454 cumulative IPC: 0.368454 (Simulation time: 0 hr 29 min 1 sec) 
Heartbeat CPU 0 instructions: 9000000 cycles: 4658335 heartbeat IPC: 1.77532 cumulative IPC: 1.73058 (Simulation time: 0 hr 29 min 7 sec) 
Heartbeat CPU 0 instructions: 10000000 cycles: 12737758 heartbeat IPC: 0.435597 cumulative IPC: 0.451627 (Simulation time: 0 hr 29 min 7 sec) 
Heartbeat CPU 0 instructions: 6000000 cycles: 4862401 heartbeat IPC: 0.554285 cumulative IPC: 0.554285 (Simulation time: 0 hr 29 min 10 sec) 
Heartbeat CPU 0 instructions: 7000001 cycles: 5305651 heartbeat IPC: 0.718899 cumulative IPC: 0.725257 (Simulation time: 0 hr 29 min 13 sec) 
Heartbeat CPU 0 instructions: 10000003 cycles: 17555205 heartbeat IPC: 0.319036 cumulative IPC: 0.312923 (Simulation time: 0 hr 29 min 21 sec) 
Heartbeat CPU 0 instructions: 9000001 cycles: 15341603 heartbeat IPC: 0.315814 cumulative IPC: 0.320618 (Simulation time: 0 hr 29 min 25 sec) 
Heartbeat CPU 0 instructions: 7000000 cycles: 7081697 heartbeat IPC: 0.477979 cumulative IPC: 0.485824 (Simulation time: 0 hr 29 min 26 sec) 
Heartbeat CPU 0 instructions: 8000000 cycles: 9151984 heartbeat IPC: 0.465043 cumulative IPC: 0.461473 (Simulation time: 0 hr 29 min 31 sec) 
Heartbeat CPU 0 instructions: 7000001 cycles: 6488213 heartbeat IPC: 0.600223 cumulative IPC: 0.575813 (Simulation time: 0 hr 29 min 36 sec) 
Heartbeat CPU 0 instructions: 7000000 cycles: 7492454 heartbeat IPC: 0.733181 cumulative IPC: 0.726163 (Simulation time: 0 hr 29 min 38 sec) 
Heartbeat CPU 0 instructions: 9000001 cycles: 6035850 heartbeat IPC: 1.05672 cumulative IPC: 1.07719 (Simulation time: 0 hr 29 min 39 sec) 
Heartbeat CPU 0 instructions: 7000000 cycles: 7691774 heartbeat IPC: 0.412938 cumulative IPC: 0.416019 (Simulation time: 0 hr 29 min 40 sec) 
Heartbeat CPU 0 instructions: 7000001 cycles: 7183176 heartbeat IPC: 0.475143 cumulative IPC: 0.473992 (Simulation time: 0 hr 29 min 47 sec) 
Heartbeat CPU 0 instructions: 9000003 cycles: 7061055 heartbeat IPC: 0.778911 cumulative IPC: 0.769879 (Simulation time: 0 hr 29 min 46 sec) 
Heartbeat CPU 0 instructions: 10000002 cycles: 15182491 heartbeat IPC: 0.499928 cumulative IPC: 0.367918 (Simulation time: 0 hr 29 min 48 sec) 
Heartbeat CPU 0 instructions: 8000000 cycles: 11428652 heartbeat IPC: 0.361911 cumulative IPC: 0.324067 (Simulation time: 0 hr 29 min 55 sec) 
Heartbeat CPU 0 instructions: 8000000 cycles: 13344137 heartbeat IPC: 0.228897 cumulative IPC: 0.266145 (Simulation time: 0 hr 29 min 59 sec) 
Heartbeat CPU 0 instructions: 6000000 cycles: 4940970 heartbeat IPC: 0.532442 cumulative IPC: 0.532442 (Simulation time: 0 hr 30 min 5 sec) 
Heartbeat CPU 0 instructions: 8000000 cycles: 9851160 heartbeat IPC: 0.449718 cumulative IPC: 0.445925 (Simulation time: 0 hr 30 min 25 sec) 
Heartbeat CPU 0 instructions: 9000000 cycles: 8510262 heartbeat IPC: 0.614339 cumulative IPC: 0.610747 (Simulation time: 0 hr 30 min 35 sec) 
Heartbeat CPU 0 instructions: 9000000 cycles: 13319670 heartbeat IPC: 0.355312 cumulative IPC: 0.347336 (Simulation time: 0 hr 30 min 43 sec) 
Heartbeat CPU 0 instructions: 7000000 cycles: 9900597 heartbeat IPC: 0.298142 cumulative IPC: 0.296862 (Simulation time: 0 hr 30 min 48 sec) 
Heartbeat CPU 0 instructions: 11000002 cycles: 5453066 heartbeat IPC: 2.09689 cumulative IPC: 2.10453 (Simulation time: 0 hr 30 min 50 sec) 
Heartbeat CPU 0 instructions: 6000000 cycles: 13595085 heartbeat IPC: 0.090107 cumulative IPC: 0.090107 (Simulation time: 0 hr 30 min 50 sec) 
Heartbeat CPU 0 instructions: 8000000 cycles: 7464681 heartbeat IPC: 0.616236 cumulative IPC: 0.614466 (Simulation time: 0 hr 30 min 50 sec) 
Heartbeat CPU 0 instructions: 9000000 cycles: 9671973 heartbeat IPC: 0.9575 cumulative IPC: 0.520503 (Simulation time: 0 hr 31 min 0 sec) 
Heartbeat CPU 0 instructions: 9000001 cycles: 6805427 heartbeat IPC: 0.920532 cumulative IPC: 0.814988 (Simulation time: 0 hr 31 min 9 sec) 
Heartbeat CPU 0 instructions: 11000001 cycles: 5663441 heartbeat IPC: 1.62565 cumulative IPC: 1.57758 (Simulation time: 0 hr 31 min 11 sec) 
Heartbeat CPU 0 instructions: 8000000 cycles: 7177836 heartbeat IPC: 0.626917 cumulative IPC: 0.664987 (Simulation time: 0 hr 31 min 16 sec) 
Heartbeat CPU 0 instructions: 11000001 cycles: 13464031 heartbeat IPC: 0.955945 cumulative IPC: 0.56756 (Simulation time: 0 hr 31 min 18 sec) 
Heartbeat CPU 0 instructions: 9000001 cycles: 14308505 heartbeat IPC: 0.335709 cumulative IPC: 0.325991 (Simulation time: 0 hr 31 min 18 sec) 
Heartbeat CPU 0 instructions: 9000001 cycles: 8517587 heartbeat IPC: 0.595343 cumulative IPC: 0.610174 (Simulation time: 0 hr 31 min 23 sec) 
Heartbeat CPU 0 instructions: 8000000 cycles: 8432840 heartbeat IPC: 0.546197 cumulative IPC: 0.551765 (Simulation time: 0 hr 31 min 26 sec) 
Heartbeat CPU 0 instructions: 7000000 cycles: 7227140 heartbeat IPC: 0.469481 cumulative IPC: 0.470355 (Simulation time: 0 hr 31 min 28 sec) 
Heartbeat CPU 0 instructions: 10000001 cycles: 8573626 heartbeat IPC: 0.721147 cumulative IPC: 0.781402 (Simulation time: 0 hr 31 min 28 sec) 
Heartbeat CPU 0 instructions: 9000003 cycles: 9626203 heartbeat IPC: 0.517338 cumulative IPC: 0.518857 (Simulation time: 0 hr 31 min 30 sec) 
Heartbeat CPU 0 instructions: 8000000 cycles: 6267515 heartbeat IPC: 0.708084 cumulative IPC: 0.730282 (Simulation time: 0 hr 31 min 31 sec) 
Heartbeat CPU 0 instructions: 9000000 cycles: 6244656 heartbeat IPC: 0.974963 cumulative IPC: 0.96606 (Simulation time: 0 hr 31 min 41 sec) 
Heartbeat CPU 0 instructions: 10000002 cycles: 7212861 heartbeat IPC: 1.16372 cumulative IPC: 1.07716 (Simulation time: 0 hr 31 min 53 sec) 
Heartbeat CPU 0 instructions: 7000003 cycles: 12629828 heartbeat IPC: 0.196826 cumulative IPC: 0.206769 (Simulation time: 0 hr 31 min 59 sec) 
Heartbeat CPU 0 instructions: 10000001 cycles: 5218925 heartbeat IPC: 1.78384 cumulative IPC: 1.74097 (Simulation time: 0 hr 32 min 13 sec) 
Heartbeat CPU 0 instructions: 10000002 cycles: 6394300 heartbeat IPC: 1.14652 cumulative IPC: 1.14758 (Simulation time: 0 hr 32 min 15 sec) 
Heartbeat CPU 0 instructions: 8000000 cycles: 11039647 heartbeat IPC: 0.376436 cumulative IPC: 0.377143 (Simulation time: 0 hr 32 min 19 sec) 
Heartbeat CPU 0 instructions: 7000000 cycles: 26594810 heartbeat IPC: 0.082774 cumulative IPC: 0.0829267 (Simulation time: 0 hr 32 min 22 sec) 
Heartbeat CPU 0 instructions: 8000000 cycles: 15981530 heartbeat IPC: 0.218837 cumulative IPC: 0.225722 (Simulation time: 0 hr 32 min 23 sec) 
[...]
Heartbeat CPU 0 instructions: 49000001 cycles: 101185179 heartbeat IPC: 0.546849 cumulative IPC: 0.44842 (Simulation time: 3 hr 33 min 57 sec) 
Heartbeat CPU 0 instructions: 53000000 cycles: 382995444 heartbeat IPC: 0.141249 cumulative IPC: 0.126417 (Simulation time: 3 hr 34 min 2 sec) 
Heartbeat CPU 0 instructions: 54000000 cycles: 116267119 heartbeat IPC: 0.282888 cumulative IPC: 0.432162 (Simulation time: 3 hr 34 min 11 sec) 
Heartbeat CPU 0 instructions: 48000000 cycles: 116352909 heartbeat IPC: 0.270268 cumulative IPC: 0.376554 (Simulation time: 3 hr 34 min 11 sec) 
Heartbeat CPU 0 instructions: 39000000 cycles: 416410378 heartbeat IPC: 0.0825678 cumulative IPC: 0.0821428 (Simulation time: 3 hr 34 min 12 sec) 
Heartbeat CPU 0 instructions: 41000003 cycles: 430771785 heartbeat IPC: 0.102811 cumulative IPC: 0.0840543 (Simulation time: 3 hr 34 min 14 sec) 
Heartbeat CPU 0 instructions: 55000000 cycles: 126354874 heartbeat IPC: 0.397593 cumulative IPC: 0.405856 (Simulation time: 3 hr 34 min 13 sec) 
Finished CPU 0 instructions: 50000000 cycles: 123196289 cummulative IPC: 0.405856 (Simulation time: 3 hr 34 min 13 sec) 

ChampSim completed all CPUs

Region of Interest Statistics

CPU 0 cummulative IPC: 0.405856 instructions: 50000000 cycles: 123196289
LLC TOTAL     ACCESS:     281706  HIT:     268076  MISS:      13630
LLC LOAD      ACCESS:     200385  HIT:     190850  MISS:       9535
LLC RFO       ACCESS:      23672  HIT:      19676  MISS:       3996
LLC PREFETCH  ACCESS:          0  HIT:          0  MISS:          0
LLC WRITEBACK ACCESS:      57649  HIT:      57550  MISS:         99
Heartbeat CPU 0 instructions: 49000000 cycles: 379826250 heartbeat IPC: 0.189527 cumulative IPC: 0.116602 (Simulation time: 3 hr 34 min 15 sec) 
Heartbeat CPU 0 instructions: 50000001 cycles: 160789451 heartbeat IPC: 0.285361 cumulative IPC: 0.285486 (Simulation time: 3 hr 34 min 26 sec) 
Heartbeat CPU 0 instructions: 50000001 cycles: 103038369 heartbeat IPC: 0.53961 cumulative IPC: 0.45011 (Simulation time: 3 hr 34 min 28 sec) 
Heartbeat CPU 0 instructions: 54000001 cycles: 390726844 heartbeat IPC: 0.129343 cumulative IPC: 0.126475 (Simulation time: 3 hr 34 min 30 sec) 
Heartbeat CPU 0 instructions: 43000000 cycles: 97706477 heartbeat IPC: 0.375961 cumulative IPC: 0.40075 (Simulation time: 3 hr 34 min 30 sec) 
Heartbeat CPU 0 instructions: 43000001 cycles: 166249696 heartbeat IPC: 0.217112 cumulative IPC: 0.232711 (Simulation time: 3 hr 34 min 31 sec) 
Heartbeat CPU 0 instructions: 40000000 cycles: 428557304 heartbeat IPC: 0.0823254 cumulative IPC: 0.082148 (Simulation time: 3 hr 34 min 44 sec) 
Heartbeat CPU 0 instructions: 55000002 cycles: 119747923 heartbeat IPC: 0.287291 cumulative IPC: 0.427847 (Simulation time: 3 hr 34 min 45 sec) 
Finished CPU 0 instructions: 50000002 cycles: 116864274 cummulative IPC: 0.427847 (Simulation time: 3 hr 34 min 45 sec) 

ChampSim completed all CPUs

Region of Interest Statistics

CPU 0 cummulative IPC: 0.427847 instructions: 50000002 cycles: 116864274
LLC TOTAL     ACCESS:    1860273  HIT:     530230  MISS:    1330043
LLC LOAD      ACCESS:    1091617  HIT:     119061  MISS:     972556
LLC RFO       ACCESS:     126461  HIT:     115681  MISS:      10780
LLC PREFETCH  ACCESS:          0  HIT:          0  MISS:          0
LLC WRITEBACK ACCESS:     642195  HIT:     295488  MISS:     346707
Heartbeat CPU 0 instructions: 42000000 cycles: 439243026 heartbeat IPC: 0.118046 cumulative IPC: 0.0847136 (Simulation time: 3 hr 34 min 46 sec) 
Heartbeat CPU 0 instructions: 50000001 cycles: 386648380 heartbeat IPC: 0.146582 cumulative IPC: 0.117135 (Simulation time: 3 hr 34 min 46 sec) 
Heartbeat CPU 0 instructions: 49000000 cycles: 120103015 heartbeat IPC: 0.266659 cumulative IPC: 0.37306 (Simulation time: 3 hr 34 min 47 sec) 
Heartbeat CPU 0 instructions: 51000002 cycles: 164291705 heartbeat IPC: 0.285531 cumulative IPC: 0.285487 (Simulation time: 3 hr 34 min 54 sec) 
Heartbeat CPU 0 instructions: 51000003 cycles: 104858061 heartbeat IPC: 0.549545 cumulative IPC: 0.451888 (Simulation time: 3 hr 34 min 53 sec) 
Heartbeat CPU 0 instructions: 55000001 cycles: 398675799 heartbeat IPC: 0.125803 cumulative IPC: 0.126462 (Simulation time: 3 hr 34 min 54 sec) 
Finished CPU 0 instructions: 50000000 cycles: 395377008 cummulative IPC: 0.126462 (Simulation time: 3 hr 34 min 54 sec) 

ChampSim completed all CPUs

Region of Interest Statistics

CPU 0 cummulative IPC: 0.126462 instructions: 50000000 cycles: 395377008
LLC TOTAL     ACCESS:    4073918  HIT:    1539672  MISS:    2534246
LLC LOAD      ACCESS:    1208958  HIT:     302587  MISS:     906371
LLC RFO       ACCESS:    1207739  HIT:     493191  MISS:     714548
LLC PREFETCH  ACCESS:          0  HIT:          0  MISS:          0
LLC WRITEBACK ACCESS:    1657221  HIT:     743894  MISS:     913327
Heartbeat CPU 0 instructions: 44000000 cycles: 100336310 heartbeat IPC: 0.380252 cumulative IPC: 0.400197 (Simulation time: 3 hr 35 min 3 sec) 
Heartbeat CPU 0 instructions: 41000000 cycles: 440550808 heartbeat IPC: 0.0833785 cumulative IPC: 0.0821817 (Simulation time: 3 hr 35 min 11 sec) 
Heartbeat CPU 0 instructions: 44000000 cycles: 170563643 heartbeat IPC: 0.231806 cumulative IPC: 0.232688 (Simulation time: 3 hr 35 min 12 sec) 
Heartbeat CPU 0 instructions: 52000000 cycles: 106657321 heartbeat IPC: 0.555782 cumulative IPC: 0.453692 (Simulation time: 3 hr 35 min 14 sec) 
Heartbeat CPU 0 instructions: 50000001 cycles: 123848860 heartbeat IPC: 0.266963 cumulative IPC: 0.369794 (Simulation time: 3 hr 35 min 15 sec) 
Heartbeat CPU 0 instructions: 52000000 cycles: 167781503 heartbeat IPC: 0.286549 cumulative IPC: 0.285509 (Simulation time: 3 hr 35 min 17 sec) 
Heartbeat CPU 0 instructions: 43000001 cycles: 450585434 heartbeat IPC: 0.0881648 cumulative IPC: 0.0848009 (Simulation time: 3 hr 35 min 18 sec) 
Heartbeat CPU 0 instructions: 51000001 cycles: 400723218 heartbeat IPC: 0.0710488 cumulative IPC: 0.115506 (Simulation time: 3 hr 35 min 23 sec) 
Heartbeat CPU 0 instructions: 42000000 cycles: 452555747 heartbeat IPC: 0.083299 cumulative IPC: 0.0822115 (Simulation time: 3 hr 35 min 35 sec) 
Heartbeat CPU 0 instructions: 45000001 cycles: 102993172 heartbeat IPC: 0.376384 cumulative IPC: 0.399565 (Simulation time: 3 hr 35 min 36 sec) 
Heartbeat CPU 0 instructions: 53000002 cycles: 108521540 heartbeat IPC: 0.536419 cumulative IPC: 0.455154 (Simulation time: 3 hr 35 min 37 sec) 
Heartbeat CPU 0 instructions: 53000000 cycles: 171346565 heartbeat IPC: 0.2805 cumulative IPC: 0.285403 (Simulation time: 3 hr 35 min 40 sec) 
Heartbeat CPU 0 instructions: 51000000 cycles: 127577600 heartbeat IPC: 0.268187 cumulative IPC: 0.366773 (Simulation time: 3 hr 35 min 44 sec) 
Heartbeat CPU 0 instructions: 52000000 cycles: 405868788 heartbeat IPC: 0.194342 cumulative IPC: 0.116512 (Simulation time: 3 hr 35 min 46 sec) 
Heartbeat CPU 0 instructions: 45000003 cycles: 174629242 heartbeat IPC: 0.245967 cumulative IPC: 0.233002 (Simulation time: 3 hr 35 min 47 sec) 
Heartbeat CPU 0 instructions: 44000000 cycles: 463083989 heartbeat IPC: 0.0800092 cumulative IPC: 0.0846709 (Simulation time: 3 hr 35 min 49 sec) 
Heartbeat CPU 0 instructions: 54000001 cycles: 110313879 heartbeat IPC: 0.55793 cumulative IPC: 0.456872 (Simulation time: 3 hr 35 min 59 sec) 
Heartbeat CPU 0 instructions: 43000000 cycles: 464620147 heartbeat IPC: 0.0828885 cumulative IPC: 0.0822292 (Simulation time: 3 hr 36 min 0 sec) 
Heartbeat CPU 0 instructions: 54000000 cycles: 174795885 heartbeat IPC: 0.289912 cumulative IPC: 0.285494 (Simulation time: 3 hr 36 min 2 sec) 
Heartbeat CPU 0 instructions: 46000003 cycles: 105618319 heartbeat IPC: 0.380932 cumulative IPC: 0.399089 (Simulation time: 3 hr 36 min 8 sec) 
Heartbeat CPU 0 instructions: 53000000 cycles: 410842984 heartbeat IPC: 0.201038 cumulative IPC: 0.117541 (Simulation time: 3 hr 36 min 9 sec) 
Heartbeat CPU 0 instructions: 52000000 cycles: 131316318 heartbeat IPC: 0.267471 cumulative IPC: 0.363899 (Simulation time: 3 hr 36 min 11 sec) 
Heartbeat CPU 0 instructions: 45000000 cycles: 470466154 heartbeat IPC: 0.135462 cumulative IPC: 0.0854721 (Simulation time: 3 hr 36 min 14 sec) 
Heartbeat CPU 0 instructions: 55000000 cycles: 112170838 heartbeat IPC: 0.538514 cumulative IPC: 0.458262 (Simulation time: 3 hr 36 min 19 sec) 
Finished CPU 0 instructions: 50000002 cycles: 109108003 cummulative IPC: 0.458262 (Simulation time: 3 hr 36 min 19 sec) 

ChampSim completed all CPUs

Region of Interest Statistics

CPU 0 cummulative IPC: 0.458262 instructions: 50000002 cycles: 109108003
LLC TOTAL     ACCESS:    2288559  HIT:     720303  MISS:    1568256
LLC LOAD      ACCESS:    1470833  HIT:     506235  MISS:     964598
LLC RFO       ACCESS:     352037  HIT:      60762  MISS:     291275
LLC PREFETCH  ACCESS:          0  HIT:          0  MISS:          0
LLC WRITEBACK ACCESS:     465689  HIT:     153306  MISS:     312383
Heartbeat CPU 0 instructions: 55000003 cycles: 178232271 heartbeat IPC: 0.291004 cumulative IPC: 0.285602 (Simulation time: 3 hr 36 min 23 sec) 
Finished CPU 0 instructions: 50000000 cycles: 175068792 cummulative IPC: 0.285602 (Simulation time: 3 hr 36 min 23 sec) 

ChampSim completed all CPUs

Region of Interest Statistics

CPU 0 cummulative IPC: 0.285602 instructions: 50000000 cycles: 175068792
LLC TOTAL     ACCESS:    2633441  HIT:      16830  MISS:    2616611
LLC LOAD      ACCESS:    1915755  HIT:      11186  MISS:    1904569
LLC RFO       ACCESS:          0  HIT:          0  MISS:          0
LLC PREFETCH  ACCESS:          0  HIT:          0  MISS:          0
LLC WRITEBACK ACCESS:     717686  HIT:       5644  MISS:     712042
Heartbeat CPU 0 instructions: 46000003 cycles: 178951268 heartbeat IPC: 0.231373 cumulative IPC: 0.232962 (Simulation time: 3 hr 36 min 24 sec) 
Heartbeat CPU 0 instructions: 44000000 cycles: 476722073 heartbeat IPC: 0.0826315 cumulative IPC: 0.0822395 (Simulation time: 3 hr 36 min 27 sec) 
Heartbeat CPU 0 instructions: 47000002 cycles: 108234505 heartbeat IPC: 0.382235 cumulative IPC: 0.39867 (Simulation time: 3 hr 36 min 35 sec) 
Heartbeat CPU 0 instructions: 53000000 cycles: 135140107 heartbeat IPC: 0.261521 cumulative IPC: 0.360955 (Simulation time: 3 hr 36 min 37 sec) 
Heartbeat CPU 0 instructions: 46000002 cycles: 481318812 heartbeat IPC: 0.0921435 cumulative IPC: 0.0856233 (Simulation time: 3 hr 36 min 40 sec) 
Heartbeat CPU 0 instructions: 54000002 cycles: 426054601 heartbeat IPC: 0.0657394 cumulative IPC: 0.115681 (Simulation time: 3 hr 36 min 43 sec) 
Heartbeat CPU 0 instructions: 47000000 cycles: 182264196 heartbeat IPC: 0.301847 cumulative IPC: 0.234235 (Simulation time: 3 hr 36 min 48 sec) 
Heartbeat CPU 0 instructions: 45000001 cycles: 488765842 heartbeat IPC: 0.0830306 cumulative IPC: 0.0822591 (Simulation time: 3 hr 36 min 52 sec) 
Heartbeat CPU 0 instructions: 54000001 cycles: 137639031 heartbeat IPC: 0.400173 cumulative IPC: 0.361678 (Simulation time: 3 hr 36 min 57 sec) 
Heartbeat CPU 0 instructions: 48000000 cycles: 110834757 heartbeat IPC: 0.384577 cumulative IPC: 0.398331 (Simulation time: 3 hr 36 min 58 sec) 
Heartbeat CPU 0 instructions: 55000002 cycles: 431567660 heartbeat IPC: 0.181387 cumulative IPC: 0.116525 (Simulation time: 3 hr 37 min 3 sec) 
Finished CPU 0 instructions: 50000001 cycles: 429091787 cummulative IPC: 0.116525 (Simulation time: 3 hr 37 min 3 sec) 

ChampSim completed all CPUs

Region of Interest Statistics

CPU 0 cummulative IPC: 0.116525 instructions: 50000001 cycles: 429091787
LLC TOTAL     ACCESS:    5613643  HIT:    2513040  MISS:    3100603
LLC LOAD      ACCESS:    4492998  HIT:    1859863  MISS:    2633135
LLC RFO       ACCESS:      98861  HIT:      67855  MISS:      31006
LLC PREFETCH  ACCESS:          0  HIT:          0  MISS:          0
LLC WRITEBACK ACCESS:    1021784  HIT:     585322  MISS:     436462
Heartbeat CPU 0 instructions: 47000002 cycles: 494048428 heartbeat IPC: 0.078557 cumulative IPC: 0.0854403 (Simulation time: 3 hr 37 min 7 sec) 
Heartbeat CPU 0 instructions: 46000000 cycles: 500782806 heartbeat IPC: 0.0832156 cumulative IPC: 0.0822821 (Simulation time: 3 hr 37 min 13 sec) 
Heartbeat CPU 0 instructions: 48000000 cycles: 186667541 heartbeat IPC: 0.2271 cumulative IPC: 0.234064 (Simulation time: 3 hr 37 min 12 sec) 
Heartbeat CPU 0 instructions: 55000002 cycles: 139966999 heartbeat IPC: 0.42956 cumulative IPC: 0.362825 (Simulation time: 3 hr 37 min 13 sec) 
Finished CPU 0 instructions: 50000001 cycles: 137807483 cummulative IPC: 0.362825 (Simulation time: 3 hr 37 min 13 sec) 

ChampSim completed all CPUs

Region of Interest Statistics

CPU 0 cummulative IPC: 0.362825 instructions: 50000001 cycles: 137807483
LLC TOTAL     ACCESS:    1605325  HIT:     751180  MISS:     854145
LLC LOAD      ACCESS:    1396098  HIT:     552173  MISS:     843925
LLC RFO       ACCESS:      12669  HIT:       2798  MISS:       9871
LLC PREFETCH  ACCESS:          0  HIT:          0  MISS:          0
LLC WRITEBACK ACCESS:     196558  HIT:     196209  MISS:        349
Heartbeat CPU 0 instructions: 49000002 cycles: 113437216 heartbeat IPC: 0.384253 cumulative IPC: 0.397999 (Simulation time: 3 hr 37 min 15 sec) 
Heartbeat CPU 0 instructions: 48000000 cycles: 501759351 heartbeat IPC: 0.129686 cumulative IPC: 0.0861236 (Simulation time: 3 hr 37 min 20 sec) 
Heartbeat CPU 0 instructions: 47000002 cycles: 512774911 heartbeat IPC: 0.0833884 cumulative IPC: 0.0823081 (Simulation time: 3 hr 37 min 26 sec) 
Heartbeat CPU 0 instructions: 49000000 cycles: 189835834 heartbeat IPC: 0.315627 cumulative IPC: 0.235447 (Simulation time: 3 hr 37 min 25 sec) 
Heartbeat CPU 0 instructions: 50000002 cycles: 116049059 heartbeat IPC: 0.382871 cumulative IPC: 0.39765 (Simulation time: 3 hr 37 min 26 sec) 
Heartbeat CPU 0 instructions: 49000003 cycles: 512607270 heartbeat IPC: 0.0921839 cumulative IPC: 0.0862525 (Simulation time: 3 hr 37 min 35 sec) 
Heartbeat CPU 0 instructions: 48000000 cycles: 524476983 heartbeat IPC: 0.0854548 cumulative IPC: 0.0823787 (Simulation time: 3 hr 37 min 37 sec) 
Heartbeat CPU 0 instructions: 50000001 cycles: 194213172 heartbeat IPC: 0.22845 cumulative IPC: 0.235287 (Simulation time: 3 hr 37 min 37 sec) 
Heartbeat CPU 0 instructions: 51000003 cycles: 118662935 heartbeat IPC: 0.382574 cumulative IPC: 0.39731 (Simulation time: 3 hr 37 min 37 sec) 
Heartbeat CPU 0 instructions: 49000000 cycles: 536595786 heartbeat IPC: 0.0825164 cumulative IPC: 0.0823818 (Simulation time: 3 hr 37 min 48 sec) 
Heartbeat CPU 0 instructions: 52000000 cycles: 121261016 heartbeat IPC: 0.384898 cumulative IPC: 0.397038 (Simulation time: 3 hr 37 min 47 sec) 
Heartbeat CPU 0 instructions: 51000003 cycles: 198206660 heartbeat IPC: 0.250408 cumulative IPC: 0.235596 (Simulation time: 3 hr 37 min 49 sec) 
Heartbeat CPU 0 instructions: 50000000 cycles: 525442778 heartbeat IPC: 0.0779086 cumulative IPC: 0.0860477 (Simulation time: 3 hr 37 min 50 sec) 
Heartbeat CPU 0 instructions: 50000002 cycles: 548688586 heartbeat IPC: 0.082694 cumulative IPC: 0.0823887 (Simulation time: 3 hr 37 min 57 sec) 
Heartbeat CPU 0 instructions: 53000000 cycles: 123844314 heartbeat IPC: 0.387102 cumulative IPC: 0.396825 (Simulation time: 3 hr 37 min 56 sec) 
Heartbeat CPU 0 instructions: 51000000 cycles: 532843283 heartbeat IPC: 0.135126 cumulative IPC: 0.0867325 (Simulation time: 3 hr 37 min 59 sec) 
Heartbeat CPU 0 instructions: 52000000 cycles: 202554839 heartbeat IPC: 0.229981 cumulative IPC: 0.235474 (Simulation time: 3 hr 38 min 1 sec) 
Heartbeat CPU 0 instructions: 54000000 cycles: 126470935 heartbeat IPC: 0.380717 cumulative IPC: 0.396483 (Simulation time: 3 hr 38 min 5 sec) 
Heartbeat CPU 0 instructions: 51000002 cycles: 560765429 heartbeat IPC: 0.0828031 cumulative IPC: 0.0823977 (Simulation time: 3 hr 38 min 7 sec) 
Heartbeat CPU 0 instructions: 52000000 cycles: 543082746 heartbeat IPC: 0.0976614 cumulative IPC: 0.0869395 (Simulation time: 3 hr 38 min 10 sec) 
Heartbeat CPU 0 instructions: 53000000 cycles: 207598916 heartbeat IPC: 0.198252 cumulative IPC: 0.234556 (Simulation time: 3 hr 38 min 11 sec) 
Heartbeat CPU 0 instructions: 55000003 cycles: 129043136 heartbeat IPC: 0.388773 cumulative IPC: 0.396326 (Simulation time: 3 hr 38 min 14 sec) 
Finished CPU 0 instructions: 50000000 cycles: 126158830 cummulative IPC: 0.396326 (Simulation time: 3 hr 38 min 14 sec) 

ChampSim completed all CPUs

Region of Interest Statistics

CPU 0 cummulative IPC: 0.396326 instructions: 50000000 cycles: 126158830
LLC TOTAL     ACCESS:      74305  HIT:      56006  MISS:      18299
LLC LOAD      ACCESS:      49411  HIT:      36288  MISS:      13123
LLC RFO       ACCESS:       9235  HIT:       4059  MISS:       5176
LLC PREFETCH  ACCESS:          0  HIT:          0  MISS:          0
LLC WRITEBACK ACCESS:      15659  HIT:      15659  MISS:          0
Heartbeat CPU 0 instructions: 52000000 cycles: 572751516 heartbeat IPC: 0.0834299 cumulative IPC: 0.0824194 (Simulation time: 3 hr 38 min 16 sec) 
Heartbeat CPU 0 instructions: 53000000 cycles: 556770347 heartbeat IPC: 0.0730588 cumulative IPC: 0.0865968 (Simulation time: 3 hr 38 min 20 sec) 
Heartbeat CPU 0 instructions: 54000002 cycles: 212216523 heartbeat IPC: 0.216563 cumulative IPC: 0.234159 (Simulation time: 3 hr 38 min 20 sec) 
Heartbeat CPU 0 instructions: 53000000 cycles: 584879308 heartbeat IPC: 0.0824552 cumulative IPC: 0.0824201 (Simulation time: 3 hr 38 min 23 sec) 
Heartbeat CPU 0 instructions: 54000000 cycles: 564426410 heartbeat IPC: 0.130615 cumulative IPC: 0.0871965 (Simulation time: 3 hr 38 min 25 sec) 
Heartbeat CPU 0 instructions: 55000001 cycles: 216463915 heartbeat IPC: 0.235438 cumulative IPC: 0.234185 (Simulation time: 3 hr 38 min 26 sec) 
Finished CPU 0 instructions: 50000001 cycles: 213506710 cummulative IPC: 0.234185 (Simulation time: 3 hr 38 min 26 sec) 

ChampSim completed all CPUs

Region of Interest Statistics

CPU 0 cummulative IPC: 0.234185 instructions: 50000001 cycles: 213506710
LLC TOTAL     ACCESS:    1600878  HIT:     445991  MISS:    1154887
LLC LOAD      ACCESS:     959917  HIT:     232231  MISS:     727686
LLC RFO       ACCESS:     162881  HIT:      42879  MISS:     120002
LLC PREFETCH  ACCESS:          0  HIT:          0  MISS:          0
LLC WRITEBACK ACCESS:     478080  HIT:     170881  MISS:     307199
Heartbeat CPU 0 instructions: 54000000 cycles: 596867432 heartbeat IPC: 0.0834159 cumulative IPC: 0.0824402 (Simulation time: 3 hr 38 min 30 sec) 
Heartbeat CPU 0 instructions: 55000000 cycles: 573457493 heartbeat IPC: 0.110729 cumulative IPC: 0.0875687 (Simulation time: 3 hr 38 min 31 sec) 
Finished CPU 0 instructions: 50000003 cycles: 570980364 cummulative IPC: 0.0875687 (Simulation time: 3 hr 38 min 31 sec) 

ChampSim completed all CPUs

Region of Interest Statistics

CPU 0 cummulative IPC: 0.0875687 instructions: 50000003 cycles: 570980364
LLC TOTAL     ACCESS:    6474123  HIT:    3213293  MISS:    3260830
LLC LOAD      ACCESS:    5697264  HIT:    2731552  MISS:    2965712
LLC RFO       ACCESS:      65895  HIT:      39564  MISS:      26331
LLC PREFETCH  ACCESS:          0  HIT:          0  MISS:          0
LLC WRITEBACK ACCESS:     710964  HIT:     442177  MISS:     268787
Heartbeat CPU 0 instructions: 55000000 cycles: 608917084 heartbeat IPC: 0.0829899 cumulative IPC: 0.0824511 (Simulation time: 3 hr 38 min 37 sec) 
Finished CPU 0 instructions: 50000000 cycles: 606419889 cummulative IPC: 0.0824511 (Simulation time: 3 hr 38 min 37 sec) 

ChampSim completed all CPUs

Region of Interest Statistics

CPU 0 cummulative IPC: 0.0824511 instructions: 50000000 cycles: 606419889
LLC TOTAL     ACCESS:    7409406  HIT:    3953050  MISS:    3456356
LLC LOAD      ACCESS:    7242638  HIT:    3847694  MISS:    3394944
LLC RFO       ACCESS:      12944  HIT:       8570  MISS:       4374
LLC PREFETCH  ACCESS:          0  HIT:          0  MISS:          0
LLC WRITEBACK ACCESS:     153824  HIT:      96786  MISS:      57038
