
*** ChampSim Multicore Out-of-Order Simulator ***


*** ChampSim Multicore Out-of-Order Simulator ***

Warmup Instructions: 5000000
Simulation Instructions: 50000000
Configuration: 1
Number of CPUs: 1
LLC sets: 2048
LLC ways: 16
Off-chip DRAM Channels: 1 Width: 64-bit Data Rate: 1600 MT/s


*** ChampSim Multicore Out-of-Order Simulator ***


Warmup Instructions: 5000000
*** ChampSim Multicore Out-of-Order Simulator ***
Simulation Instructions: 50000000

Configuration: 1
Number of CPUs: 1
LLC sets: 2048
LLC ways: 16
Warmup Instructions: 5000000
Simulation Instructions: 50000000
Off-chip DRAM Channels: 1 Width: 64-bit Data Rate: 1600 MT/s

Configuration: 1
Number of CPUs: 1
LLC sets: 2048
LLC ways: 16
Off-chip DRAM Channels: 1 Width: 64-bit Data Rate: 1600 MT/s

Warmup Instructions: 5000000

Simulation Instructions: 50000000
Configuration: 1
Number of CPUs: 1
LLC sets: 2048
*** ChampSim Multicore Out-of-Order Simulator ***
LLC ways: 16



*** ChampSim Multicore Out-of-Order Simulator ***



*** ChampSim Multicore Out-of-Order Simulator ***

*** ChampSim Multicore Out-of-Order Simulator ***
Warmup Instructions: 5000000

Simulation Instructions: 50000000
Configuration: 1
Number of CPUs: 1
LLC sets: 2048
LLC ways: 16
Off-chip DRAM Channels: 1 Width: 64-bit Data Rate: 1600 MT/s


Warmup Instructions: 5000000

Simulation Instructions: 50000000
Configuration: 1
*** ChampSim Multicore Out-of-Order Simulator ***

Number of CPUs: 1
LLC sets: 2048
LLC ways: 16
*** ChampSim Multicore Out-of-Order Simulator ***

Warmup Instructions: 5000000
Simulation Instructions: 50000000

Configuration: 1
Off-chip DRAM Channels: 1 Width: 64-bit Data Rate: 1600 MT/s

Warmup Instructions: 5000000
Number of CPUs: 1
LLC sets: 2048
Simulation Instructions: 50000000
LLC ways: 16
Configuration: 1
Off-chip DRAM Channels: 1 Width: 64-bit Data Rate: 1600 MT/s

*** ChampSim Multicore Out-of-Order Simulator ***

Warmup Instructions: 5000000
Simulation Instructions: 50000000
Configuration: 1
Number of CPUs: 1
Number of CPUs: 1
LLC sets: 2048
LLC sets: 2048
LLC ways: 16
LLC ways: 16

Off-chip DRAM Channels: 1 Width: 64-bit Data Rate: 1600 MT/s

*** ChampSim Multicore Out-of-Order Simulator ***


Warmup Instructions: 5000000
Simulation Instructions: 50000000
Configuration: 1

Number of CPUs: 1
LLC sets: 2048
LLC ways: 16
*** ChampSim Multicore Out-of-Order Simulator ***

Warmup Instructions: 5000000
Simulation Instructions: 50000000
Off-chip DRAM Channels: 1 Width: 64-bit Data Rate: 1600 MT/s

Configuration: 1
Number of CPUs: 1
LLC sets: 2048
LLC ways: 16
Off-chip DRAM Channels: 1 Width: 64-bit Data Rate: 1600 MT/s

Off-chip DRAM Channels: 1 Width: 64-bit Data Rate: 1600 MT/s

Warmup Instructions: 5000000
Simulation Instructions: 50000000
Configuration: 1
Number of CPUs: 1
LLC sets: 2048
LLC ways: 16
Off-chip DRAM Channels: 1 Width: 64-bit Data Rate: 1600 MT/s

Warmup Instructions: 5000000
Simulation Instructions: 50000000
Configuration: 1
*** ChampSim Multicore Out-of-Order Simulator ***
Off-chip DRAM Channels: 1 Width: 64-bit Data Rate: 1600 MT/s



*** ChampSim Multicore Out-of-Order Simulator ***
Warmup Instructions: 5000000

Simulation Instructions: 50000000
Number of CPUs: 1
Configuration: 1
*** ChampSim Multicore Out-of-Order Simulator ***
LLC sets: 2048

Number of CPUs: 1
LLC ways: 16
Warmup Instructions: 5000000
LLC sets: 2048
Simulation Instructions: 50000000
LLC ways: 16
Configuration: 1
Warmup Instructions: 5000000
Number of CPUs: 1
Off-chip DRAM Channels: 1 Width: 64-bit Data Rate: 1600 MT/s

Simulation Instructions: 50000000
LLC sets: 2048
LLC ways: 16
Off-chip DRAM Channels: 1 Width: 64-bit Data Rate: 1600 MT/s

Off-chip DRAM Channels: 1 Width: 64-bit Data Rate: 1600 MT/s

Configuration: 1
Number of CPUs: 1
LLC sets: 2048
LLC ways: 16
Off-chip DRAM Channels: 1 Width: 64-bit Data Rate: 1600 MT/s



*** ChampSim Multicore Out-of-Order Simulator ***

*** ChampSim Multicore Out-of-Order Simulator ***

Warmup Instructions: 5000000
Simulation Instructions: 50000000
Warmup Instructions: 5000000
Configuration: 1
Simulation Instructions: 50000000
Number of CPUs: 1
Configuration: 1

LLC sets: 2048
Number of CPUs: 1
LLC ways: 16
LLC sets: 2048
LLC ways: 16
*** ChampSim Multicore Out-of-Order Simulator ***
Off-chip DRAM Channels: 1 Width: 64-bit Data Rate: 1600 MT/s


Off-chip DRAM Channels: 1 Width: 64-bit Data Rate: 1600 MT/s

Warmup Instructions: 5000000
Simulation Instructions: 50000000
Configuration: 1
Number of CPUs: 1
LLC sets: 2048
LLC ways: 16

Off-chip DRAM Channels: 1 Width: 64-bit Data Rate: 1600 MT/s

*** ChampSim Multicore Out-of-Order Simulator ***

Warmup Instructions: 5000000
Simulation Instructions: 50000000
Configuration: 1
Number of CPUs: 1
LLC sets: 2048
LLC ways: 16
Off-chip DRAM Channels: 1 Width: 64-bit Data Rate: 1600 MT/s


*** ChampSim Multicore Out-of-Order Simulator ***

Warmup Instructions: 5000000
Simulation Instructions: 50000000
Configuration: 1
Number of CPUs: 1
LLC sets: 2048
LLC ways: 16
Off-chip DRAM Channels: 1 Width: 64-bit Data Rate: 1600 MT/s


*** ChampSim Multicore Out-of-Order Simulator ***

Warmup Instructions: 5000000
Simulation Instructions: 50000000
Configuration: 1
Number of CPUs: 1
LLC sets: 2048
LLC ways: 16
Off-chip DRAM Channels: 1 Width: 64-bit Data Rate: 1600 MT/s


*** ChampSim Multicore Out-of-Order Simulator ***

Warmup Instructions: 5000000
Simulation Instructions: 50000000
Configuration: 1
Number of CPUs: 1
LLC sets: 2048
LLC ways: 16
Off-chip DRAM Channels: 1 Width: 64-bit Data Rate: 1600 MT/s


*** ChampSim Multicore Out-of-Order Simulator ***

Warmup Instructions: 5000000
Simulation Instructions: 50000000
Configuration: 1
Number of CPUs: 1
LLC sets: 2048
LLC ways: 16

Off-chip DRAM Channels: 1 Width: 64-bit Data Rate: 1600 MT/s

*** ChampSim Multicore Out-of-Order Simulator ***

Warmup Instructions: 5000000
Simulation Instructions: 50000000
Configuration: 1
Number of CPUs: 1
LLC sets: 2048
LLC ways: 16
Off-chip DRAM Channels: 1 Width: 64-bit Data Rate: 1600 MT/s


*** ChampSim Multicore Out-of-Order Simulator ***

Warmup Instructions: 5000000
Simulation Instructions: 50000000
Configuration: 1
Number of CPUs: 1
LLC sets: 2048
LLC ways: 16
Off-chip DRAM Channels: 1 Width: 64-bit Data Rate: 1600 MT/s


*** ChampSim Multicore Out-of-Order Simulator ***

Warmup Instructions: 5000000
Simulation Instructions: 50000000
Configuration: 1
Number of CPUs: 1
LLC sets: 2048
LLC ways: 16
Off-chip DRAM Channels: 1 Width: 64-bit Data Rate: 1600 MT/s




*** ChampSim Multicore Out-of-Order Simulator ***


*** ChampSim Multicore Out-of-Order Simulator ***

Warmup Instructions: 5000000

*** ChampSim Multicore Out-of-Order Simulator ***

Warmup Instructions: 5000000
Simulation Instructions: 50000000
Configuration: 1
Number of CPUs: 1
LLC sets: 2048
LLC ways: 16
Off-chip DRAM Channels: 1 Width: 64-bit Data Rate: 1600 MT/s


*** ChampSim Multicore Out-of-Order Simulator ***

Warmup Instructions: 5000000
Simulation Instructions: 50000000
Configuration: 1
Number of CPUs: 1
LLC sets: 2048
LLC ways: 16
Off-chip DRAM Channels: 1 Width: 64-bit Data Rate: 1600 MT/s

*** ChampSim Multicore Out-of-Order Simulator ***

Warmup Instructions: 5000000
Simulation Instructions: 50000000
*** ChampSim Multicore Out-of-Order Simulator ***
Configuration: 1
Number of CPUs: 1
LLC sets: 2048
LLC ways: 16

Off-chip DRAM Channels: 1 Width: 64-bit Data Rate: 1600 MT/s

Warmup Instructions: 5000000
Simulation Instructions: 50000000
Configuration: 1
Number of CPUs: 1
Simulation Instructions: 50000000
Configuration: 1
Number of CPUs: 1
LLC sets: 2048
LLC ways: 16
Warmup Instructions: 5000000
Off-chip DRAM Channels: 1 Width: 64-bit Data Rate: 1600 MT/s

Simulation Instructions: 50000000
Configuration: 1
Number of CPUs: 1
LLC sets: 2048
LLC ways: 16
Off-chip DRAM Channels: 1 Width: 64-bit Data Rate: 1600 MT/s


*** ChampSim Multicore Out-of-Order Simulator ***

Warmup Instructions: 5000000
Simulation Instructions: 50000000
Configuration: 1
Number of CPUs: 1
LLC sets: 2048
LLC ways: 16
Off-chip DRAM Channels: 1 Width: 64-bit Data Rate: 1600 MT/s




*** ChampSim Multicore Out-of-Order Simulator ***

Warmup Instructions: 5000000
Simulation Instructions: 50000000
Configuration: 1
Number of CPUs: 1
LLC sets: 2048
LLC ways: 16
Off-chip DRAM Channels: 1 Width: 64-bit Data Rate: 1600 MT/s


*** ChampSim Multicore Out-of-Order Simulator ***

Warmup Instructions: 5000000
Simulation Instructions: 50000000
Configuration: 1
Number of CPUs: 1
LLC sets: 2048
LLC ways: 16
Off-chip DRAM Channels: 1 Width: 64-bit Data Rate: 1600 MT/s


*** ChampSim Multicore Out-of-Order Simulator ***

Warmup Instructions: 5000000
Simulation Instructions: 50000000
Configuration: 1
Number of CPUs: 1
LLC sets: 2048
LLC ways: 16
Off-chip DRAM Channels: 1 Width: 64-bit Data Rate: 1600 MT/s


*** ChampSim Multicore Out-of-Order Simulator ***

Warmup Instructions: 5000000
Simulation Instructions: 50000000
Configuration: 1
Number of CPUs: 1
LLC sets: 2048
LLC ways: 16
Off-chip DRAM Channels: 1 Width: 64-bit Data Rate: 1600 MT/s

LLC sets: 2048
LLC ways: 16

*** ChampSim Multicore Out-of-Order Simulator ***
*** ChampSim Multicore Out-of-Order Simulator ***


Warmup Instructions: 5000000
Simulation Instructions: 50000000
Configuration: 1
Warmup Instructions: 5000000
Simulation Instructions: 50000000
Number of CPUs: 1
Configuration: 1
LLC sets: 2048
LLC ways: 16
Number of CPUs: 1
LLC sets: 2048
LLC ways: 16

Off-chip DRAM Channels: 1 Width: 64-bit Data Rate: 1600 MT/s

Off-chip DRAM Channels: 1 Width: 64-bit Data Rate: 1600 MT/s


*** ChampSim Multicore Out-of-Order Simulator ***

Warmup Instructions: 5000000
Simulation Instructions: 50000000
Configuration: 1
*** ChampSim Multicore Out-of-Order Simulator ***

*** ChampSim Multicore Out-of-Order Simulator ***

Warmup Instructions: 5000000
Simulation Instructions: 50000000
Configuration: 1
Number of CPUs: 1
LLC sets: 2048
LLC ways: 16
Off-chip DRAM Channels: 1 Width: 64-bit Data Rate: 1600 MT/s


*** ChampSim Multicore Out-of-Order Simulator ***

Off-chip DRAM Channels: 1 Width: 64-bit Data Rate: 1600 MT/s

Warmup Instructions: 5000000
Simulation Instructions: 50000000
Configuration: 1

Number of CPUs: 1
LLC sets: 2048
LLC ways: 16
Off-chip DRAM Channels: 1 Width: 64-bit Data Rate: 1600 MT/s

*** ChampSim Multicore Out-of-Order Simulator ***

Warmup Instructions: 5000000
Simulation Instructions: 50000000
Configuration: 1
Number of CPUs: 1
LLC sets: 2048
LLC ways: 16
Off-chip DRAM Channels: 1 Width: 64-bit Data Rate: 1600 MT/s

Number of CPUs: 1
LLC sets: 2048
LLC ways: 16
Warmup Instructions: 5000000
Simulation Instructions: 50000000
Configuration: 1
Number of CPUs: 1
LLC sets: 2048
LLC ways: 16
Off-chip DRAM Channels: 1 Width: 64-bit Data Rate: 1600 MT/s


*** ChampSim Multicore Out-of-Order Simulator ***

Warmup Instructions: 5000000
Simulation Instructions: 50000000
Configuration: 1
Number of CPUs: 1
LLC sets: 2048
LLC ways: 16
Off-chip DRAM Channels: 1 Width: 64-bit Data Rate: 1600 MT/s


*** ChampSim Multicore Out-of-Order Simulator ***

Warmup Instructions: 5000000
Simulation Instructions: 50000000
Configuration: 1
Number of CPUs: 1
LLC sets: 2048
LLC ways: 16
Off-chip DRAM Channels: 1 Width: 64-bit Data Rate: 1600 MT/s


*** ChampSim Multicore Out-of-Order Simulator ***

Warmup Instructions: 5000000
Simulation Instructions: 50000000
Configuration: 1
Number of CPUs: 1
LLC sets: 2048
LLC ways: 16
Off-chip DRAM Channels: 1 Width: 64-bit Data Rate: 1600 MT/s


*** ChampSim Multicore Out-of-Order Simulator ***

Warmup Instructions: 5000000
Simulation Instructions: 50000000
Configuration: 1
Number of CPUs: 1
LLC sets: 2048
LLC ways: 16
Off-chip DRAM Channels: 1 Width: 64-bit Data Rate: 1600 MT/s

Off-chip DRAM Channels: 1 Width: 64-bit Data Rate: 1600 MT/s


*** ChampSim Multicore Out-of-Order Simulator ***

Warmup Instructions: 5000000
Simulation Instructions: 50000000
Configuration: 1
Number of CPUs: 1
LLC sets: 2048
LLC ways: 16
Off-chip DRAM Channels: 1 Width: 64-bit Data Rate: 1600 MT/s


*** ChampSim Multicore Out-of-Order Simulator ***

Warmup Instructions: 5000000
Simulation Instructions: 50000000
Configuration: 1
Number of CPUs: 1
LLC sets: 2048
LLC ways: 16
Off-chip DRAM Channels: 1 Width: 64-bit Data Rate: 1600 MT/s

CPU 0 runs /datasets/cs240c-wi22-a00-public/data/Assignment2-gz/libquantum_964B.trace.gz
Heartbeat CPU 0 instructions: 1000001 cycles: 333344 heartbeat IPC: 2.99991 cumulative IPC: 2.99991 (Simulation time: 0 hr 2 min 17 sec) 
CPU 0 runs /datasets/cs240c-wi22-a00-public/data/Assignment2-gz/libquantum_1735B.trace.gz
Heartbeat CPU 0 instructions: 1000003 cycles: 333345 heartbeat IPC: 2.9999 cumulative IPC: 2.9999 (Simulation time: 0 hr 2 min 18 sec) 
CPU 0 runs /datasets/cs240c-wi22-a00-public/data/Assignment2-gz/libquantum_1210B.trace.gz
Heartbeat CPU 0 instructions: 1000003 cycles: 314916 heartbeat IPC: 3.17546 cumulative IPC: 3.17546 (Simulation time: 0 hr 2 min 21 sec) 
CPU 0 runs /datasets/cs240c-wi22-a00-public/data/Assignment2-gz/calculix_2655B.trace.gz
Heartbeat CPU 0 instructions: 1000003 cycles: 371402 heartbeat IPC: 2.69251 cumulative IPC: 2.69251 (Simulation time: 0 hr 2 min 35 sec) 
CPU 0 runs /datasets/cs240c-wi22-a00-public/data/Assignment2-gz/calculix_2670B.trace.gz
Heartbeat CPU 0 instructions: 1000003 cycles: 520140 heartbeat IPC: 1.92257 cumulative IPC: 1.92257 (Simulation time: 0 hr 2 min 41 sec) 
CPU 0 runs /datasets/cs240c-wi22-a00-public/data/Assignment2-gz/zeusmp_600B.trace.gz
Heartbeat CPU 0 instructions: 1000000 cycles: 407507 heartbeat IPC: 2.45395 cumulative IPC: 2.45395 (Simulation time: 0 hr 2 min 45 sec) 
CPU 0 runs /datasets/cs240c-wi22-a00-public/data/Assignment2-gz/zeusmp_300B.trace.gz
Heartbeat CPU 0 instructions: 1000003 cycles: 508391 heartbeat IPC: 1.967 cumulative IPC: 1.967 (Simulation time: 0 hr 2 min 56 sec) 
CPU 0 runs /datasets/cs240c-wi22-a00-public/data/Assignment2-gz/soplex_205B.trace.gz
Heartbeat CPU 0 instructions: 1000000 cycles: 394357 heartbeat IPC: 2.53577 cumulative IPC: 2.53577 (Simulation time: 0 hr 2 min 59 sec) 
CPU 0 runs /datasets/cs240c-wi22-a00-public/data/Assignment2-gz/sphinx3_883B.trace.gz
Heartbeat CPU 0 instructions: 1000003 cycles: 413061 heartbeat IPC: 2.42096 cumulative IPC: 2.42096 (Simulation time: 0 hr 3 min 4 sec) 
CPU 0 runs /datasets/cs240c-wi22-a00-public/data/Assignment2-gz/omnetpp_17B.trace.gz
Heartbeat CPU 0 instructions: 1000000 cycles: 559780 heartbeat IPC: 1.78642 cumulative IPC: 1.78642 (Simulation time: 0 hr 3 min 9 sec) 
CPU 0 runs /datasets/cs240c-wi22-a00-public/data/Assignment2-gz/sphinx3_2520B.trace.gz
Heartbeat CPU 0 instructions: 1000003 cycles: 338265 heartbeat IPC: 2.95627 cumulative IPC: 2.95627 (Simulation time: 0 hr 3 min 8 sec) 
CPU 0 runs /datasets/cs240c-wi22-a00-public/data/Assignment2-gz/sphinx3_1339B.trace.gz
Heartbeat CPU 0 instructions: 1000001 cycles: 338437 heartbeat IPC: 2.95476 cumulative IPC: 2.95476 (Simulation time: 0 hr 3 min 14 sec) 
CPU 0 runs /datasets/cs240c-wi22-a00-public/data/Assignment2-gz/lbm_1004B.trace.gz
Heartbeat CPU 0 instructions: 1000002 cycles: 391495 heartbeat IPC: 2.55432 cumulative IPC: 2.55432 (Simulation time: 0 hr 3 min 17 sec) 
CPU 0 runs /datasets/cs240c-wi22-a00-public/data/Assignment2-gz/milc_409B.trace.gz
Heartbeat CPU 0 instructions: 1000000 cycles: 402731 heartbeat IPC: 2.48305 cumulative IPC: 2.48305 (Simulation time: 0 hr 3 min 17 sec) 
CPU 0 runs /datasets/cs240c-wi22-a00-public/data/Assignment2-gz/soplex_66B.trace.gz
Heartbeat CPU 0 instructions: 1000003 cycles: 416333 heartbeat IPC: 2.40193 cumulative IPC: 2.40193 (Simulation time: 0 hr 3 min 17 sec) 
CPU 0 runs /datasets/cs240c-wi22-a00-public/data/Assignment2-gz/omnetpp_4B.trace.gz
Heartbeat CPU 0 instructions: 1000001 cycles: 566835 heartbeat IPC: 1.76418 cumulative IPC: 1.76418 (Simulation time: 0 hr 3 min 17 sec) 
CPU 0 runs /datasets/cs240c-wi22-a00-public/data/Assignment2-gz/wrf_1650B.trace.gz
Heartbeat CPU 0 instructions: 1000000 cycles: 514412 heartbeat IPC: 1.94397 cumulative IPC: 1.94397 (Simulation time: 0 hr 3 min 18 sec) 
CPU 0 runs /datasets/cs240c-wi22-a00-public/data/Assignment2-gz/GemsFDTD_716B.trace.gz
Heartbeat CPU 0 instructions: 1000000 cycles: 415494 heartbeat IPC: 2.40677 cumulative IPC: 2.40677 (Simulation time: 0 hr 3 min 18 sec) 
CPU 0 runs /datasets/cs240c-wi22-a00-public/data/Assignment2-gz/bzip2_259B.trace.gz
Heartbeat CPU 0 instructions: 1000002 cycles: 428954 heartbeat IPC: 2.33126 cumulative IPC: 2.33126 (Simulation time: 0 hr 3 min 21 sec) 
CPU 0 runs /datasets/cs240c-wi22-a00-public/data/Assignment2-gz/lbm_564B.trace.gz
Heartbeat CPU 0 instructions: 1000000 cycles: 390238 heartbeat IPC: 2.56254 cumulative IPC: 2.56254 (Simulation time: 0 hr 3 min 22 sec) 
CPU 0 runs /datasets/cs240c-wi22-a00-public/data/Assignment2-gz/milc_744B.trace.gz
Heartbeat CPU 0 instructions: 1000000 cycles: 383399 heartbeat IPC: 2.60825 cumulative IPC: 2.60825 (Simulation time: 0 hr 3 min 22 sec) 
CPU 0 runs /datasets/cs240c-wi22-a00-public/data/Assignment2-gz/bzip2_281B.trace.gz
Heartbeat CPU 0 instructions: 1000000 cycles: 445723 heartbeat IPC: 2.24355 cumulative IPC: 2.24355 (Simulation time: 0 hr 3 min 26 sec) 
CPU 0 runs /datasets/cs240c-wi22-a00-public/data/Assignment2-gz/lbm_94B.trace.gz
Heartbeat CPU 0 instructions: 1000000 cycles: 422411 heartbeat IPC: 2.36736 cumulative IPC: 2.36736 (Simulation time: 0 hr 3 min 25 sec) 
CPU 0 runs /datasets/cs240c-wi22-a00-public/data/Assignment2-gz/perlbench_105B.trace.gz
Heartbeat CPU 0 instructions: 1000000 cycles: 578082 heartbeat IPC: 1.72986 cumulative IPC: 1.72986 (Simulation time: 0 hr 3 min 25 sec) 
CPU 0 runs /datasets/cs240c-wi22-a00-public/data/Assignment2-gz/leslie3d_1116B.trace.gz
Heartbeat CPU 0 instructions: 1000001 cycles: 532936 heartbeat IPC: 1.8764 cumulative IPC: 1.8764 (Simulation time: 0 hr 3 min 28 sec) 
CPU 0 runs /datasets/cs240c-wi22-a00-public/data/Assignment2-gz/astar_23B.trace.gz
Heartbeat CPU 0 instructions: 1000000 cycles: 360103 heartbeat IPC: 2.77698 cumulative IPC: 2.77698 (Simulation time: 0 hr 3 min 32 sec) 
CPU 0 runs /datasets/cs240c-wi22-a00-public/data/Assignment2-gz/wrf_1212B.trace.gz
Heartbeat CPU 0 instructions: 1000001 cycles: 599253 heartbeat IPC: 1.66875 cumulative IPC: 1.66875 (Simulation time: 0 hr 3 min 31 sec) 
CPU 0 runs /datasets/cs240c-wi22-a00-public/data/Assignment2-gz/zeusmp_100B.trace.gz
Heartbeat CPU 0 instructions: 1000002 cycles: 464468 heartbeat IPC: 2.15301 cumulative IPC: 2.15301 (Simulation time: 0 hr 3 min 32 sec) 
CPU 0 runs /datasets/cs240c-wi22-a00-public/data/Assignment2-gz/calculix_3812B.trace.gz
Heartbeat CPU 0 instructions: 1000001 cycles: 475279 heartbeat IPC: 2.10403 cumulative IPC: 2.10403 (Simulation time: 0 hr 3 min 34 sec) 
CPU 0 runs /datasets/cs240c-wi22-a00-public/data/Assignment2-gz/bzip2_183B.trace.gz
Heartbeat CPU 0 instructions: 1000000 cycles: 448069 heartbeat IPC: 2.2318 cumulative IPC: 2.2318 (Simulation time: 0 hr 3 min 36 sec) 
CPU 0 runs /datasets/cs240c-wi22-a00-public/data/Assignment2-gz/gcc_13B.trace.gz
Heartbeat CPU 0 instructions: 1000000 cycles: 644728 heartbeat IPC: 1.55104 cumulative IPC: 1.55104 (Simulation time: 0 hr 3 min 37 sec) 
CPU 0 runs /datasets/cs240c-wi22-a00-public/data/Assignment2-gz/gcc_56B.trace.gz
Heartbeat CPU 0 instructions: 1000003 cycles: 954224 heartbeat IPC: 1.04798 cumulative IPC: 1.04798 (Simulation time: 0 hr 3 min 41 sec) 
CPU 0 runs /datasets/cs240c-wi22-a00-public/data/Assignment2-gz/gcc_39B.trace.gz
Heartbeat CPU 0 instructions: 1000000 cycles: 510392 heartbeat IPC: 1.95928 cumulative IPC: 1.95928 (Simulation time: 0 hr 3 min 43 sec) 
CPU 0 runs /datasets/cs240c-wi22-a00-public/data/Assignment2-gz/milc_360B.trace.gz
Heartbeat CPU 0 instructions: 1000001 cycles: 549889 heartbeat IPC: 1.81855 cumulative IPC: 1.81855 (Simulation time: 0 hr 3 min 42 sec) 
CPU 0 runs /datasets/cs240c-wi22-a00-public/data/Assignment2-gz/soplex_217B.trace.gz
Heartbeat CPU 0 instructions: 1000000 cycles: 437356 heartbeat IPC: 2.28647 cumulative IPC: 2.28647 (Simulation time: 0 hr 3 min 44 sec) 
CPU 0 runs /datasets/cs240c-wi22-a00-public/data/Assignment2-gz/astar_313B.trace.gz
Heartbeat CPU 0 instructions: 1000001 cycles: 678650 heartbeat IPC: 1.47352 cumulative IPC: 1.47352 (Simulation time: 0 hr 3 min 45 sec) 
CPU 0 runs /datasets/cs240c-wi22-a00-public/data/Assignment2-gz/astar_163B.trace.gz
Heartbeat CPU 0 instructions: 1000002 cycles: 530774 heartbeat IPC: 1.88404 cumulative IPC: 1.88404 (Simulation time: 0 hr 3 min 48 sec) 
CPU 0 runs /datasets/cs240c-wi22-a00-public/data/Assignment2-gz/GemsFDTD_109B.trace.gz
Heartbeat CPU 0 instructions: 1000002 cycles: 577063 heartbeat IPC: 1.73292 cumulative IPC: 1.73292 (Simulation time: 0 hr 3 min 51 sec) 
CPU 0 runs /datasets/cs240c-wi22-a00-public/data/Assignment2-gz/leslie3d_94B.trace.gz
Heartbeat CPU 0 instructions: 1000003 cycles: 592147 heartbeat IPC: 1.68877 cumulative IPC: 1.68877 (Simulation time: 0 hr 3 min 57 sec) 
CPU 0 runs /datasets/cs240c-wi22-a00-public/data/Assignment2-gz/wrf_1228B.trace.gz
Heartbeat CPU 0 instructions: 1000003 cycles: 590333 heartbeat IPC: 1.69396 cumulative IPC: 1.69396 (Simulation time: 0 hr 3 min 57 sec) 
CPU 0 runs /datasets/cs240c-wi22-a00-public/data/Assignment2-gz/mcf_46B.trace.gz
Heartbeat CPU 0 instructions: 1000002 cycles: 482155 heartbeat IPC: 2.07403 cumulative IPC: 2.07403 (Simulation time: 0 hr 4 min 1 sec) 
CPU 0 runs /datasets/cs240c-wi22-a00-public/data/Assignment2-gz/mcf_250B.trace.gz
Heartbeat CPU 0 instructions: 1000000 cycles: 527568 heartbeat IPC: 1.89549 cumulative IPC: 1.89549 (Simulation time: 0 hr 4 min 4 sec) 
CPU 0 runs /datasets/cs240c-wi22-a00-public/data/Assignment2-gz/mcf_158B.trace.gz
Heartbeat CPU 0 instructions: 1000002 cycles: 496608 heartbeat IPC: 2.01366 cumulative IPC: 2.01366 (Simulation time: 0 hr 4 min 5 sec) 
CPU 0 runs /datasets/cs240c-wi22-a00-public/data/Assignment2-gz/leslie3d_1186B.trace.gz
Heartbeat CPU 0 instructions: 1000002 cycles: 557793 heartbeat IPC: 1.79278 cumulative IPC: 1.79278 (Simulation time: 0 hr 4 min 8 sec) 
CPU 0 runs /datasets/cs240c-wi22-a00-public/data/Assignment2-gz/perlbench_135B.trace.gz
Heartbeat CPU 0 instructions: 1000000 cycles: 601490 heartbeat IPC: 1.66254 cumulative IPC: 1.66254 (Simulation time: 0 hr 4 min 13 sec) 
Heartbeat CPU 0 instructions: 2000001 cycles: 666677 heartbeat IPC: 3 cumulative IPC: 2.99995 (Simulation time: 0 hr 4 min 16 sec) 
CPU 0 runs /datasets/cs240c-wi22-a00-public/data/Assignment2-gz/GemsFDTD_712B.trace.gz
Heartbeat CPU 0 instructions: 1000003 cycles: 633083 heartbeat IPC: 1.57958 cumulative IPC: 1.57958 (Simulation time: 0 hr 4 min 19 sec) 
CPU 0 runs /datasets/cs240c-wi22-a00-public/data/Assignment2-gz/perlbench_53B.trace.gz
Heartbeat CPU 0 instructions: 1000000 cycles: 617122 heartbeat IPC: 1.62043 cumulative IPC: 1.62043 (Simulation time: 0 hr 4 min 19 sec) 
CPU 0 runs /datasets/cs240c-wi22-a00-public/data/Assignment2-gz/cactusADM_734B.trace.gz
Heartbeat CPU 0 instructions: 1000003 cycles: 592365 heartbeat IPC: 1.68815 cumulative IPC: 1.68815 (Simulation time: 0 hr 4 min 21 sec) 
CPU 0 runs /datasets/cs240c-wi22-a00-public/data/Assignment2-gz/omnetpp_340B.trace.gz
Heartbeat CPU 0 instructions: 1000001 cycles: 578280 heartbeat IPC: 1.72927 cumulative IPC: 1.72927 (Simulation time: 0 hr 4 min 26 sec) 
CPU 0 runs /datasets/cs240c-wi22-a00-public/data/Assignment2-gz/cactusADM_1495B.trace.gz
Heartbeat CPU 0 instructions: 1000003 cycles: 593354 heartbeat IPC: 1.68534 cumulative IPC: 1.68534 (Simulation time: 0 hr 4 min 29 sec) 
CPU 0 runs /datasets/cs240c-wi22-a00-public/data/Assignment2-gz/cactusADM_1039B.trace.gz
Heartbeat CPU 0 instructions: 1000000 cycles: 595112 heartbeat IPC: 1.68036 cumulative IPC: 1.68036 (Simulation time: 0 hr 4 min 30 sec) 
Heartbeat CPU 0 instructions: 2000003 cycles: 666677 heartbeat IPC: 3.00001 cumulative IPC: 2.99996 (Simulation time: 0 hr 4 min 38 sec) 
Heartbeat CPU 0 instructions: 2000000 cycles: 630173 heartbeat IPC: 3.17201 cumulative IPC: 3.17373 (Simulation time: 0 hr 4 min 42 sec) 
Heartbeat CPU 0 instructions: 2000001 cycles: 746536 heartbeat IPC: 2.66571 cumulative IPC: 2.67904 (Simulation time: 0 hr 5 min 8 sec) 
Heartbeat CPU 0 instructions: 2000001 cycles: 1039679 heartbeat IPC: 1.92478 cumulative IPC: 1.92367 (Simulation time: 0 hr 5 min 14 sec) 
Heartbeat CPU 0 instructions: 2000001 cycles: 814374 heartbeat IPC: 2.45781 cumulative IPC: 2.45588 (Simulation time: 0 hr 5 min 46 sec) 
Heartbeat CPU 0 instructions: 2000003 cycles: 1059161 heartbeat IPC: 1.81564 cumulative IPC: 1.88829 (Simulation time: 0 hr 5 min 51 sec) 
Heartbeat CPU 0 instructions: 2000002 cycles: 890222 heartbeat IPC: 2.01668 cumulative IPC: 2.24663 (Simulation time: 0 hr 6 min 8 sec) 
Heartbeat CPU 0 instructions: 2000003 cycles: 785321 heartbeat IPC: 2.53112 cumulative IPC: 2.54673 (Simulation time: 0 hr 6 min 11 sec) 
Heartbeat CPU 0 instructions: 2000001 cycles: 1135262 heartbeat IPC: 1.75924 cumulative IPC: 1.76171 (Simulation time: 0 hr 6 min 12 sec) 
Heartbeat CPU 0 instructions: 2000002 cycles: 1133995 heartbeat IPC: 1.74151 cumulative IPC: 1.76368 (Simulation time: 0 hr 6 min 15 sec) 
Heartbeat CPU 0 instructions: 2000001 cycles: 691941 heartbeat IPC: 2.82882 cumulative IPC: 2.89042 (Simulation time: 0 hr 6 min 14 sec) 
Heartbeat CPU 0 instructions: 2000000 cycles: 821532 heartbeat IPC: 2.44815 cumulative IPC: 2.43448 (Simulation time: 0 hr 6 min 17 sec) 
Heartbeat CPU 0 instructions: 2000003 cycles: 830875 heartbeat IPC: 2.40744 cumulative IPC: 2.4071 (Simulation time: 0 hr 6 min 23 sec) 
Heartbeat CPU 0 instructions: 2000000 cycles: 812709 heartbeat IPC: 2.56214 cumulative IPC: 2.46091 (Simulation time: 0 hr 6 min 24 sec) 
Heartbeat CPU 0 instructions: 2000000 cycles: 1028660 heartbeat IPC: 1.94459 cumulative IPC: 1.94428 (Simulation time: 0 hr 6 min 27 sec) 
Heartbeat CPU 0 instructions: 2000001 cycles: 782981 heartbeat IPC: 2.55437 cumulative IPC: 2.55434 (Simulation time: 0 hr 6 min 28 sec) 
Heartbeat CPU 0 instructions: 3000000 cycles: 1000009 heartbeat IPC: 3.00001 cumulative IPC: 2.99997 (Simulation time: 0 hr 6 min 31 sec) 
Heartbeat CPU 0 instructions: 2000001 cycles: 766759 heartbeat IPC: 2.60852 cumulative IPC: 2.60838 (Simulation time: 0 hr 6 min 34 sec) 
Heartbeat CPU 0 instructions: 2000003 cycles: 899728 heartbeat IPC: 2.20263 cumulative IPC: 2.2229 (Simulation time: 0 hr 6 min 41 sec) 
Heartbeat CPU 0 instructions: 2000003 cycles: 861405 heartbeat IPC: 2.3124 cumulative IPC: 2.32179 (Simulation time: 0 hr 6 min 41 sec) 
Heartbeat CPU 0 instructions: 2000002 cycles: 842795 heartbeat IPC: 2.34487 cumulative IPC: 2.37306 (Simulation time: 0 hr 6 min 42 sec) 
Heartbeat CPU 0 instructions: 2000000 cycles: 735301 heartbeat IPC: 2.51866 cumulative IPC: 2.71997 (Simulation time: 0 hr 6 min 43 sec) 
Heartbeat CPU 0 instructions: 2000001 cycles: 951159 heartbeat IPC: 1.98772 cumulative IPC: 2.1027 (Simulation time: 0 hr 6 min 49 sec) 
Heartbeat CPU 0 instructions: 2000000 cycles: 1198243 heartbeat IPC: 1.66948 cumulative IPC: 1.66911 (Simulation time: 0 hr 6 min 48 sec) 
Heartbeat CPU 0 instructions: 2000003 cycles: 797919 heartbeat IPC: 2.77345 cumulative IPC: 2.50652 (Simulation time: 0 hr 6 min 53 sec) 
Heartbeat CPU 0 instructions: 3000003 cycles: 945982 heartbeat IPC: 3.16648 cumulative IPC: 3.17131 (Simulation time: 0 hr 6 min 55 sec) 
Heartbeat CPU 0 instructions: 2000000 cycles: 882610 heartbeat IPC: 2.08386 cumulative IPC: 2.26601 (Simulation time: 0 hr 6 min 56 sec) 
Heartbeat CPU 0 instructions: 2000001 cycles: 1164382 heartbeat IPC: 1.70561 cumulative IPC: 1.71765 (Simulation time: 0 hr 6 min 57 sec) 
Heartbeat CPU 0 instructions: 2000003 cycles: 1066398 heartbeat IPC: 1.87455 cumulative IPC: 1.87548 (Simulation time: 0 hr 6 min 57 sec) 
Heartbeat CPU 0 instructions: 3000001 cycles: 989047 heartbeat IPC: 3.10202 cumulative IPC: 3.03322 (Simulation time: 0 hr 6 min 57 sec) 
Heartbeat CPU 0 instructions: 2000002 cycles: 1020757 heartbeat IPC: 1.95939 cumulative IPC: 1.95933 (Simulation time: 0 hr 7 min 6 sec) 
Heartbeat CPU 0 instructions: 2000001 cycles: 720965 heartbeat IPC: 2.77115 cumulative IPC: 2.77406 (Simulation time: 0 hr 7 min 6 sec) 
Heartbeat CPU 0 instructions: 2000003 cycles: 1099779 heartbeat IPC: 1.81855 cumulative IPC: 1.81855 (Simulation time: 0 hr 7 min 13 sec) 
Heartbeat CPU 0 instructions: 2000002 cycles: 949743 heartbeat IPC: 2.10764 cumulative IPC: 2.10583 (Simulation time: 0 hr 7 min 15 sec) 
Heartbeat CPU 0 instructions: 2000001 cycles: 1257217 heartbeat IPC: 1.63268 cumulative IPC: 1.59082 (Simulation time: 0 hr 7 min 17 sec) 
Heartbeat CPU 0 instructions: 2000001 cycles: 928928 heartbeat IPC: 2.15304 cumulative IPC: 2.15302 (Simulation time: 0 hr 7 min 17 sec) 
Heartbeat CPU 0 instructions: 2000003 cycles: 1060018 heartbeat IPC: 1.88949 cumulative IPC: 1.88676 (Simulation time: 0 hr 7 min 31 sec) 
Heartbeat CPU 0 instructions: 3000002 cycles: 1121180 heartbeat IPC: 2.6692 cumulative IPC: 2.67575 (Simulation time: 0 hr 7 min 32 sec) 
Heartbeat CPU 0 instructions: 2000002 cycles: 1100530 heartbeat IPC: 1.96003 cumulative IPC: 1.81731 (Simulation time: 0 hr 7 min 34 sec) 
Heartbeat CPU 0 instructions: 3000001 cycles: 1559976 heartbeat IPC: 1.92198 cumulative IPC: 1.92311 (Simulation time: 0 hr 7 min 44 sec) 
Heartbeat CPU 0 instructions: 2000002 cycles: 992513 heartbeat IPC: 2.01652 cumulative IPC: 2.01509 (Simulation time: 0 hr 7 min 47 sec) 
Heartbeat CPU 0 instructions: 2000001 cycles: 1898520 heartbeat IPC: 1.05899 cumulative IPC: 1.05345 (Simulation time: 0 hr 7 min 48 sec) 
Heartbeat CPU 0 instructions: 2000002 cycles: 967466 heartbeat IPC: 2.06053 cumulative IPC: 2.06726 (Simulation time: 0 hr 7 min 52 sec) 
Heartbeat CPU 0 instructions: 2000003 cycles: 1269495 heartbeat IPC: 1.69249 cumulative IPC: 1.57543 (Simulation time: 0 hr 7 min 55 sec) 
Heartbeat CPU 0 instructions: 2000003 cycles: 1029400 heartbeat IPC: 1.9927 cumulative IPC: 1.94288 (Simulation time: 0 hr 7 min 55 sec) 
Heartbeat CPU 0 instructions: 2000002 cycles: 1206641 heartbeat IPC: 1.62735 cumulative IPC: 1.6575 (Simulation time: 0 hr 8 min 5 sec) 
Heartbeat CPU 0 instructions: 2000003 cycles: 1154104 heartbeat IPC: 1.73298 cumulative IPC: 1.73295 (Simulation time: 0 hr 8 min 7 sec) 
Heartbeat CPU 0 instructions: 2000000 cycles: 1204525 heartbeat IPC: 1.54623 cumulative IPC: 1.66041 (Simulation time: 0 hr 8 min 11 sec) 
Heartbeat CPU 0 instructions: 2000000 cycles: 1266011 heartbeat IPC: 1.57995 cumulative IPC: 1.57977 (Simulation time: 0 hr 8 min 33 sec) 
Heartbeat CPU 0 instructions: 2000001 cycles: 1255808 heartbeat IPC: 1.56572 cumulative IPC: 1.5926 (Simulation time: 0 hr 8 min 35 sec) 
Heartbeat CPU 0 instructions: 2000001 cycles: 1185295 heartbeat IPC: 1.68654 cumulative IPC: 1.68734 (Simulation time: 0 hr 8 min 36 sec) 
Heartbeat CPU 0 instructions: 3000002 cycles: 1602081 heartbeat IPC: 1.84189 cumulative IPC: 1.87257 (Simulation time: 0 hr 8 min 37 sec) 
Heartbeat CPU 0 instructions: 2000002 cycles: 1190036 heartbeat IPC: 1.68089 cumulative IPC: 1.68062 (Simulation time: 0 hr 8 min 39 sec) 
Heartbeat CPU 0 instructions: 4000000 cycles: 1333342 heartbeat IPC: 3 cumulative IPC: 2.99998 (Simulation time: 0 hr 8 min 42 sec) 
Heartbeat CPU 0 instructions: 2000000 cycles: 1162467 heartbeat IPC: 1.71178 cumulative IPC: 1.72048 (Simulation time: 0 hr 8 min 43 sec) 
Heartbeat CPU 0 instructions: 3000003 cycles: 1221893 heartbeat IPC: 2.45388 cumulative IPC: 2.45521 (Simulation time: 0 hr 8 min 43 sec) 
Heartbeat CPU 0 instructions: 2000000 cycles: 1212073 heartbeat IPC: 1.63778 cumulative IPC: 1.65007 (Simulation time: 0 hr 8 min 47 sec) 
Heartbeat CPU 0 instructions: 3000001 cycles: 1722681 heartbeat IPC: 1.70236 cumulative IPC: 1.74147 (Simulation time: 0 hr 9 min 3 sec) 
Heartbeat CPU 0 instructions: 3000002 cycles: 1175571 heartbeat IPC: 2.56246 cumulative IPC: 2.55195 (Simulation time: 0 hr 9 min 13 sec) 
Heartbeat CPU 0 instructions: 4000000 cycles: 1260334 heartbeat IPC: 3.18114 cumulative IPC: 3.17376 (Simulation time: 0 hr 9 min 14 sec) 
Heartbeat CPU 0 instructions: 4000000 cycles: 1290772 heartbeat IPC: 3.31427 cumulative IPC: 3.09892 (Simulation time: 0 hr 9 min 16 sec) 
Heartbeat CPU 0 instructions: 3000001 cycles: 1769252 heartbeat IPC: 1.57416 cumulative IPC: 1.69563 (Simulation time: 0 hr 9 min 19 sec) 
Heartbeat CPU 0 instructions: 3000000 cycles: 1211869 heartbeat IPC: 2.50526 cumulative IPC: 2.47552 (Simulation time: 0 hr 9 min 23 sec) 
Heartbeat CPU 0 instructions: 3000000 cycles: 1286935 heartbeat IPC: 2.19269 cumulative IPC: 2.33112 (Simulation time: 0 hr 9 min 24 sec) 
Heartbeat CPU 0 instructions: 2000000 cycles: 1186182 heartbeat IPC: 1.68682 cumulative IPC: 1.68608 (Simulation time: 0 hr 9 min 27 sec) 
Heartbeat CPU 0 instructions: 3000000 cycles: 1081973 heartbeat IPC: 2.56389 cumulative IPC: 2.77271 (Simulation time: 0 hr 9 min 30 sec) 
Heartbeat CPU 0 instructions: 3000003 cycles: 1294920 heartbeat IPC: 2.11244 cumulative IPC: 2.31675 (Simulation time: 0 hr 9 min 33 sec) 
Heartbeat CPU 0 instructions: 3000001 cycles: 1174398 heartbeat IPC: 2.55482 cumulative IPC: 2.5545 (Simulation time: 0 hr 9 min 45 sec) 
Heartbeat CPU 0 instructions: 3000001 cycles: 1150170 heartbeat IPC: 2.60817 cumulative IPC: 2.60831 (Simulation time: 0 hr 9 min 45 sec) 
Heartbeat CPU 0 instructions: 3000002 cycles: 1314505 heartbeat IPC: 2.41093 cumulative IPC: 2.28223 (Simulation time: 0 hr 9 min 52 sec) 
Heartbeat CPU 0 instructions: 3000003 cycles: 1181536 heartbeat IPC: 2.24098 cumulative IPC: 2.53907 (Simulation time: 0 hr 9 min 53 sec) 
Heartbeat CPU 0 instructions: 3000001 cycles: 1546521 heartbeat IPC: 1.93102 cumulative IPC: 1.93984 (Simulation time: 0 hr 10 min 2 sec) 
Heartbeat CPU 0 instructions: 3000003 cycles: 1252589 heartbeat IPC: 2.44025 cumulative IPC: 2.39504 (Simulation time: 0 hr 10 min 3 sec) 
Heartbeat CPU 0 instructions: 4000000 cycles: 1487470 heartbeat IPC: 2.73007 cumulative IPC: 2.68913 (Simulation time: 0 hr 10 min 5 sec) 
Heartbeat CPU 0 instructions: 3000001 cycles: 1287146 heartbeat IPC: 2.34884 cumulative IPC: 2.33074 (Simulation time: 0 hr 10 min 6 sec) 
Heartbeat CPU 0 instructions: 3000001 cycles: 1726618 heartbeat IPC: 1.77861 cumulative IPC: 1.7375 (Simulation time: 0 hr 10 min 7 sec) 
Heartbeat CPU 0 instructions: 3000001 cycles: 1457648 heartbeat IPC: 1.97438 cumulative IPC: 2.05811 (Simulation time: 0 hr 10 min 8 sec) 
Heartbeat CPU 0 instructions: 3000000 cycles: 1360004 heartbeat IPC: 2.12864 cumulative IPC: 2.20588 (Simulation time: 0 hr 10 min 8 sec) 
Heartbeat CPU 0 instructions: 3000000 cycles: 1248892 heartbeat IPC: 2.21742 cumulative IPC: 2.40213 (Simulation time: 0 hr 10 min 15 sec) 
Heartbeat CPU 0 instructions: 3000001 cycles: 1797630 heartbeat IPC: 1.66837 cumulative IPC: 1.66886 (Simulation time: 0 hr 10 min 16 sec) 
Heartbeat CPU 0 instructions: 4000000 cycles: 2081696 heartbeat IPC: 1.91674 cumulative IPC: 1.92151 (Simulation time: 0 hr 10 min 24 sec) 
Heartbeat CPU 0 instructions: 3000000 cycles: 1079917 heartbeat IPC: 2.78589 cumulative IPC: 2.77799 (Simulation time: 0 hr 10 min 27 sec) 
Heartbeat CPU 0 instructions: 3000000 cycles: 1735178 heartbeat IPC: 2.09222 cumulative IPC: 1.72893 (Simulation time: 0 hr 10 min 30 sec) 
Heartbeat CPU 0 instructions: 3000002 cycles: 1529819 heartbeat IPC: 1.9644 cumulative IPC: 1.96102 (Simulation time: 0 hr 10 min 41 sec) 
Heartbeat CPU 0 instructions: 3000002 cycles: 1425613 heartbeat IPC: 2.10141 cumulative IPC: 2.10436 (Simulation time: 0 hr 10 min 42 sec) 
Heartbeat CPU 0 instructions: 3000001 cycles: 1649612 heartbeat IPC: 1.81873 cumulative IPC: 1.81861 (Simulation time: 0 hr 10 min 42 sec) 
Heartbeat CPU 0 instructions: 3000003 cycles: 1393617 heartbeat IPC: 2.15198 cumulative IPC: 2.15267 (Simulation time: 0 hr 10 min 42 sec) 
Heartbeat CPU 0 instructions: 3000003 cycles: 1600517 heartbeat IPC: 1.87224 cumulative IPC: 1.8744 (Simulation time: 0 hr 10 min 43 sec) 
Heartbeat CPU 0 instructions: 5000001 cycles: 1666677 heartbeat IPC: 2.99999 cumulative IPC: 2.99998 (Simulation time: 0 hr 10 min 55 sec) 

Warmup complete CPU 0 instructions: 5000001 cycles: 1666677 (Simulation time: 0 hr 10 min 55 sec) 

Heartbeat CPU 0 instructions: 3000002 cycles: 1589730 heartbeat IPC: 1.88782 cumulative IPC: 1.88711 (Simulation time: 0 hr 11 min 11 sec) 
Heartbeat CPU 0 instructions: 5000000 cycles: 1576820 heartbeat IPC: 3.1597 cumulative IPC: 3.17094 (Simulation time: 0 hr 11 min 31 sec) 

Warmup complete CPU 0 instructions: 5000004 cycles: 1576821 (Simulation time: 0 hr 11 min 31 sec) 

Heartbeat CPU 0 instructions: 3000002 cycles: 1512811 heartbeat IPC: 2.06863 cumulative IPC: 1.98306 (Simulation time: 0 hr 11 min 33 sec) 
Heartbeat CPU 0 instructions: 3000000 cycles: 1708676 heartbeat IPC: 1.64434 cumulative IPC: 1.75575 (Simulation time: 0 hr 11 min 34 sec) 
Heartbeat CPU 0 instructions: 3000000 cycles: 1488851 heartbeat IPC: 2.01475 cumulative IPC: 2.01498 (Simulation time: 0 hr 11 min 36 sec) 
Heartbeat CPU 0 instructions: 5000000 cycles: 1592498 heartbeat IPC: 3.31427 cumulative IPC: 3.13972 (Simulation time: 0 hr 11 min 38 sec) 

Warmup complete CPU 0 instructions: 5000004 cycles: 1592499 (Simulation time: 0 hr 11 min 38 sec) 

Heartbeat CPU 0 instructions: 3000000 cycles: 1484366 heartbeat IPC: 1.93461 cumulative IPC: 2.02106 (Simulation time: 0 hr 11 min 40 sec) 
Heartbeat CPU 0 instructions: 4000000 cycles: 2087846 heartbeat IPC: 2.0586 cumulative IPC: 1.91585 (Simulation time: 0 hr 11 min 43 sec) 
Heartbeat CPU 0 instructions: 4000000 cycles: 1629601 heartbeat IPC: 2.45273 cumulative IPC: 2.45459 (Simulation time: 0 hr 11 min 43 sec) 
Heartbeat CPU 0 instructions: 3000003 cycles: 1662911 heartbeat IPC: 1.28156 cumulative IPC: 1.80407 (Simulation time: 0 hr 11 min 52 sec) 
Heartbeat CPU 0 instructions: 3000001 cycles: 2885884 heartbeat IPC: 1.0128 cumulative IPC: 1.03954 (Simulation time: 0 hr 11 min 57 sec) 
Heartbeat CPU 0 instructions: 3000003 cycles: 1946829 heartbeat IPC: 1.47638 cumulative IPC: 1.54097 (Simulation time: 0 hr 12 min 12 sec) 
Heartbeat CPU 0 instructions: 4000000 cycles: 2291977 heartbeat IPC: 1.75655 cumulative IPC: 1.74522 (Simulation time: 0 hr 12 min 12 sec) 
Heartbeat CPU 0 instructions: 3000002 cycles: 1854530 heartbeat IPC: 1.54347 cumulative IPC: 1.61766 (Simulation time: 0 hr 12 min 16 sec) 
Heartbeat CPU 0 instructions: 4000000 cycles: 1565781 heartbeat IPC: 2.56272 cumulative IPC: 2.55464 (Simulation time: 0 hr 12 min 17 sec) 
Heartbeat CPU 0 instructions: 4000000 cycles: 2334552 heartbeat IPC: 1.76897 cumulative IPC: 1.71339 (Simulation time: 0 hr 12 min 22 sec) 
Heartbeat CPU 0 instructions: 4000000 cycles: 1633292 heartbeat IPC: 2.95532 cumulative IPC: 2.44904 (Simulation time: 0 hr 12 min 22 sec) 
Heartbeat CPU 0 instructions: 3000000 cycles: 1851620 heartbeat IPC: 1.54537 cumulative IPC: 1.6202 (Simulation time: 0 hr 12 min 23 sec) 
Heartbeat CPU 0 instructions: 3000000 cycles: 1730667 heartbeat IPC: 1.73441 cumulative IPC: 1.73344 (Simulation time: 0 hr 12 min 33 sec) 
Heartbeat CPU 0 instructions: 4000000 cycles: 1526801 heartbeat IPC: 2.24806 cumulative IPC: 2.61986 (Simulation time: 0 hr 12 min 33 sec) 
Heartbeat CPU 0 instructions: 4000000 cycles: 1632045 heartbeat IPC: 2.37996 cumulative IPC: 2.45091 (Simulation time: 0 hr 12 min 34 sec) 
Heartbeat CPU 0 instructions: 4000000 cycles: 1744228 heartbeat IPC: 2.18678 cumulative IPC: 2.29328 (Simulation time: 0 hr 12 min 37 sec) 
Heartbeat CPU 0 instructions: 3000002 cycles: 1912368 heartbeat IPC: 1.52309 cumulative IPC: 1.56874 (Simulation time: 0 hr 12 min 39 sec) 
Heartbeat CPU 0 instructions: 5000003 cycles: 1860159 heartbeat IPC: 2.68321 cumulative IPC: 2.68794 (Simulation time: 0 hr 12 min 40 sec) 

Warmup complete CPU 0 instructions: 5000003 cycles: 1860159 (Simulation time: 0 hr 12 min 40 sec) 

Heartbeat CPU 0 instructions: 3000000 cycles: 1898572 heartbeat IPC: 1.58088 cumulative IPC: 1.58013 (Simulation time: 0 hr 12 min 44 sec) 
Heartbeat CPU 0 instructions: 4000000 cycles: 1570639 heartbeat IPC: 2.52371 cumulative IPC: 2.54673 (Simulation time: 0 hr 12 min 52 sec) 
Heartbeat CPU 0 instructions: 3000001 cycles: 1760247 heartbeat IPC: 1.67286 cumulative IPC: 1.70431 (Simulation time: 0 hr 12 min 54 sec) 
Heartbeat CPU 0 instructions: 3000003 cycles: 1778084 heartbeat IPC: 1.68694 cumulative IPC: 1.68721 (Simulation time: 0 hr 12 min 56 sec) 
Heartbeat CPU 0 instructions: 3000003 cycles: 1785063 heartbeat IPC: 1.6806 cumulative IPC: 1.68061 (Simulation time: 0 hr 12 min 56 sec) 
Heartbeat CPU 0 instructions: 4000000 cycles: 1519954 heartbeat IPC: 2.95492 cumulative IPC: 2.63166 (Simulation time: 0 hr 12 min 57 sec) 
Heartbeat CPU 0 instructions: 4000000 cycles: 1533552 heartbeat IPC: 2.60836 cumulative IPC: 2.60832 (Simulation time: 0 hr 12 min 58 sec) 
Heartbeat CPU 0 instructions: 5000000 cycles: 2602077 heartbeat IPC: 1.92167 cumulative IPC: 1.92154 (Simulation time: 0 hr 13 min 3 sec) 

Warmup complete CPU 0 instructions: 5000001 cycles: 2602078 (Simulation time: 0 hr 13 min 3 sec) 

Heartbeat CPU 0 instructions: 4000000 cycles: 1637962 heartbeat IPC: 2.59488 cumulative IPC: 2.44206 (Simulation time: 0 hr 13 min 3 sec) 
Heartbeat CPU 0 instructions: 4000000 cycles: 1753029 heartbeat IPC: 2.28037 cumulative IPC: 2.28176 (Simulation time: 0 hr 13 min 8 sec) 
Heartbeat CPU 0 instructions: 3000000 cycles: 1836606 heartbeat IPC: 1.6012 cumulative IPC: 1.63345 (Simulation time: 0 hr 13 min 16 sec) 
Heartbeat CPU 0 instructions: 4000000 cycles: 2306048 heartbeat IPC: 1.72583 cumulative IPC: 1.73457 (Simulation time: 0 hr 13 min 21 sec) 
Heartbeat CPU 0 instructions: 4000000 cycles: 1685678 heartbeat IPC: 2.50921 cumulative IPC: 2.37293 (Simulation time: 0 hr 13 min 22 sec) 
Heartbeat CPU 0 instructions: 4000000 cycles: 1928242 heartbeat IPC: 2.12497 cumulative IPC: 2.07443 (Simulation time: 0 hr 13 min 25 sec) 
Heartbeat CPU 0 instructions: 4000000 cycles: 1722387 heartbeat IPC: 2.75951 cumulative IPC: 2.32236 (Simulation time: 0 hr 13 min 30 sec) 
Heartbeat CPU 0 instructions: 4000000 cycles: 2064469 heartbeat IPC: 1.93069 cumulative IPC: 1.93754 (Simulation time: 0 hr 13 min 36 sec) 
Heartbeat CPU 0 instructions: 4000000 cycles: 1687068 heartbeat IPC: 2.28219 cumulative IPC: 2.37098 (Simulation time: 0 hr 13 min 58 sec) 
Heartbeat CPU 0 instructions: 4000000 cycles: 1441377 heartbeat IPC: 2.76656 cumulative IPC: 2.77512 (Simulation time: 0 hr 13 min 59 sec) 
Heartbeat CPU 0 instructions: 4000000 cycles: 2212948 heartbeat IPC: 2.09306 cumulative IPC: 1.80754 (Simulation time: 0 hr 14 min 0 sec) 
Heartbeat CPU 0 instructions: 4000000 cycles: 2396228 heartbeat IPC: 1.67057 cumulative IPC: 1.66929 (Simulation time: 0 hr 14 min 1 sec) 
Heartbeat CPU 0 instructions: 4000000 cycles: 1895811 heartbeat IPC: 2.12676 cumulative IPC: 2.10992 (Simulation time: 0 hr 14 min 18 sec) 
Heartbeat CPU 0 instructions: 4000000 cycles: 2038994 heartbeat IPC: 1.96396 cumulative IPC: 1.96175 (Simulation time: 0 hr 14 min 24 sec) 
Heartbeat CPU 0 instructions: 4000000 cycles: 1858062 heartbeat IPC: 2.1531 cumulative IPC: 2.15278 (Simulation time: 0 hr 14 min 25 sec) 
Heartbeat CPU 0 instructions: 5000001 cycles: 2571024 heartbeat IPC: 2.06963 cumulative IPC: 1.94475 (Simulation time: 0 hr 14 min 30 sec) 

Warmup complete CPU 0 instructions: 5000001 cycles: 2571024 (Simulation time: 0 hr 14 min 30 sec) 

Heartbeat CPU 0 instructions: 3000003 cycles: 1779362 heartbeat IPC: 1.68583 cumulative IPC: 1.686 (Simulation time: 0 hr 14 min 33 sec) 
Heartbeat CPU 0 instructions: 4000000 cycles: 2199464 heartbeat IPC: 1.81867 cumulative IPC: 1.81862 (Simulation time: 0 hr 14 min 33 sec) 
Heartbeat CPU 0 instructions: 4000000 cycles: 2133411 heartbeat IPC: 1.87654 cumulative IPC: 1.87493 (Simulation time: 0 hr 14 min 38 sec) 
Heartbeat CPU 0 instructions: 5000001 cycles: 2037319 heartbeat IPC: 2.45268 cumulative IPC: 2.45421 (Simulation time: 0 hr 14 min 46 sec) 

Warmup complete CPU 0 instructions: 5000001 cycles: 2037319 (Simulation time: 0 hr 14 min 46 sec) 

Heartbeat CPU 0 instructions: 6000002 cycles: 3664216 heartbeat IPC: 0.500616 cumulative IPC: 0.500616 (Simulation time: 0 hr 14 min 54 sec) 
Heartbeat CPU 0 instructions: 4000000 cycles: 2119462 heartbeat IPC: 1.88774 cumulative IPC: 1.88727 (Simulation time: 0 hr 14 min 56 sec) 
Heartbeat CPU 0 instructions: 5000000 cycles: 2866135 heartbeat IPC: 1.74168 cumulative IPC: 1.74451 (Simulation time: 0 hr 15 min 4 sec) 

Warmup complete CPU 0 instructions: 5000002 cycles: 2866136 (Simulation time: 0 hr 15 min 4 sec) 

Heartbeat CPU 0 instructions: 6000001 cycles: 4802736 heartbeat IPC: 0.30999 cumulative IPC: 0.309989 (Simulation time: 0 hr 15 min 11 sec) 
Heartbeat CPU 0 instructions: 6000001 cycles: 4820947 heartbeat IPC: 0.309747 cumulative IPC: 0.309745 (Simulation time: 0 hr 15 min 12 sec) 
Heartbeat CPU 0 instructions: 5000000 cycles: 1960940 heartbeat IPC: 2.53063 cumulative IPC: 2.5498 (Simulation time: 0 hr 15 min 21 sec) 

Warmup complete CPU 0 instructions: 5000004 cycles: 1960941 (Simulation time: 0 hr 15 min 21 sec) 

Heartbeat CPU 0 instructions: 4000000 cycles: 2007184 heartbeat IPC: 2.02276 cumulative IPC: 1.99284 (Simulation time: 0 hr 15 min 24 sec) 
Heartbeat CPU 0 instructions: 5000001 cycles: 2022323 heartbeat IPC: 2.56228 cumulative IPC: 2.4724 (Simulation time: 0 hr 15 min 24 sec) 

Warmup complete CPU 0 instructions: 5000001 cycles: 2022323 (Simulation time: 0 hr 15 min 24 sec) 

Heartbeat CPU 0 instructions: 5000000 cycles: 1987099 heartbeat IPC: 2.8264 cumulative IPC: 2.51623 (Simulation time: 0 hr 15 min 26 sec) 

Warmup complete CPU 0 instructions: 5000004 cycles: 1987100 (Simulation time: 0 hr 15 min 26 sec) 

Heartbeat CPU 0 instructions: 4000000 cycles: 1995174 heartbeat IPC: 1.95768 cumulative IPC: 2.00484 (Simulation time: 0 hr 15 min 27 sec) 
Heartbeat CPU 0 instructions: 5000002 cycles: 2893959 heartbeat IPC: 1.78761 cumulative IPC: 1.72774 (Simulation time: 0 hr 15 min 32 sec) 

Warmup complete CPU 0 instructions: 5000002 cycles: 2893959 (Simulation time: 0 hr 15 min 32 sec) 

Heartbeat CPU 0 instructions: 6000003 cycles: 2440238 heartbeat IPC: 1.7239 cumulative IPC: 1.7239 (Simulation time: 0 hr 15 min 34 sec) 
Heartbeat CPU 0 instructions: 4000000 cycles: 1983814 heartbeat IPC: 2.02035 cumulative IPC: 2.01632 (Simulation time: 0 hr 15 min 35 sec) 
Heartbeat CPU 0 instructions: 6000001 cycles: 3075679 heartbeat IPC: 2.11148 cumulative IPC: 2.11148 (Simulation time: 0 hr 15 min 38 sec) 
Heartbeat CPU 0 instructions: 5000003 cycles: 1865235 heartbeat IPC: 2.95479 cumulative IPC: 2.68063 (Simulation time: 0 hr 15 min 40 sec) 

Warmup complete CPU 0 instructions: 5000003 cycles: 1865235 (Simulation time: 0 hr 15 min 40 sec) 

Heartbeat CPU 0 instructions: 5000000 cycles: 2038640 heartbeat IPC: 2.49577 cumulative IPC: 2.45262 (Simulation time: 0 hr 15 min 51 sec) 

Warmup complete CPU 0 instructions: 5000001 cycles: 2038642 (Simulation time: 0 hr 15 min 51 sec) 

Heartbeat CPU 0 instructions: 4000000 cycles: 2319465 heartbeat IPC: 1.63723 cumulative IPC: 1.72454 (Simulation time: 0 hr 15 min 50 sec) 
Heartbeat CPU 0 instructions: 5000000 cycles: 2159515 heartbeat IPC: 2.40797 cumulative IPC: 2.31533 (Simulation time: 0 hr 15 min 57 sec) 

Warmup complete CPU 0 instructions: 5000001 cycles: 2159516 (Simulation time: 0 hr 15 min 57 sec) 

Heartbeat CPU 0 instructions: 5000002 cycles: 1962096 heartbeat IPC: 2.55456 cumulative IPC: 2.5483 (Simulation time: 0 hr 16 min 0 sec) 

Warmup complete CPU 0 instructions: 5000002 cycles: 1962096 (Simulation time: 0 hr 16 min 0 sec) 

Heartbeat CPU 0 instructions: 5000001 cycles: 1916947 heartbeat IPC: 2.60828 cumulative IPC: 2.60831 (Simulation time: 0 hr 16 min 4 sec) 

Warmup complete CPU 0 instructions: 5000001 cycles: 1916947 (Simulation time: 0 hr 16 min 4 sec) 

Heartbeat CPU 0 instructions: 4000000 cycles: 3848630 heartbeat IPC: 1.03869 cumulative IPC: 1.03933 (Simulation time: 0 hr 16 min 6 sec) 
Heartbeat CPU 0 instructions: 5000001 cycles: 1897207 heartbeat IPC: 2.65074 cumulative IPC: 2.63545 (Simulation time: 0 hr 16 min 14 sec) 

Warmup complete CPU 0 instructions: 5000001 cycles: 1897207 (Simulation time: 0 hr 16 min 14 sec) 

Heartbeat CPU 0 instructions: 5000002 cycles: 2174869 heartbeat IPC: 2.37057 cumulative IPC: 2.29899 (Simulation time: 0 hr 16 min 24 sec) 

Warmup complete CPU 0 instructions: 5000002 cycles: 2174869 (Simulation time: 0 hr 16 min 24 sec) 

Heartbeat CPU 0 instructions: 4000000 cycles: 2624709 heartbeat IPC: 1.47518 cumulative IPC: 1.52398 (Simulation time: 0 hr 16 min 32 sec) 
Heartbeat CPU 0 instructions: 4000000 cycles: 2502067 heartbeat IPC: 1.54431 cumulative IPC: 1.59868 (Simulation time: 0 hr 16 min 31 sec) 
Heartbeat CPU 0 instructions: 4000000 cycles: 2528843 heartbeat IPC: 1.62212 cumulative IPC: 1.58175 (Simulation time: 0 hr 16 min 33 sec) 
Heartbeat CPU 0 instructions: 4000000 cycles: 2452100 heartbeat IPC: 1.66533 cumulative IPC: 1.63125 (Simulation time: 0 hr 16 min 34 sec) 
Heartbeat CPU 0 instructions: 5000000 cycles: 2425411 heartbeat IPC: 2.01139 cumulative IPC: 2.06151 (Simulation time: 0 hr 16 min 42 sec) 

Warmup complete CPU 0 instructions: 5000004 cycles: 2425412 (Simulation time: 0 hr 16 min 42 sec) 

Heartbeat CPU 0 instructions: 4000000 cycles: 2443121 heartbeat IPC: 1.2817 cumulative IPC: 1.63725 (Simulation time: 0 hr 16 min 47 sec) 
Heartbeat CPU 0 instructions: 4000000 cycles: 2530889 heartbeat IPC: 1.58149 cumulative IPC: 1.58047 (Simulation time: 0 hr 16 min 46 sec) 
Heartbeat CPU 0 instructions: 5000001 cycles: 2104126 heartbeat IPC: 2.38979 cumulative IPC: 2.37628 (Simulation time: 0 hr 16 min 47 sec) 

Warmup complete CPU 0 instructions: 5000001 cycles: 2104126 (Simulation time: 0 hr 16 min 47 sec) 

Heartbeat CPU 0 instructions: 4000000 cycles: 2307197 heartbeat IPC: 1.73452 cumulative IPC: 1.73371 (Simulation time: 0 hr 16 min 50 sec) 
Heartbeat CPU 0 instructions: 5000001 cycles: 2582394 heartbeat IPC: 1.93078 cumulative IPC: 1.93619 (Simulation time: 0 hr 16 min 54 sec) 

Warmup complete CPU 0 instructions: 5000001 cycles: 2582394 (Simulation time: 0 hr 16 min 54 sec) 

Heartbeat CPU 0 instructions: 5000001 cycles: 2072176 heartbeat IPC: 2.59668 cumulative IPC: 2.41292 (Simulation time: 0 hr 16 min 57 sec) 

Warmup complete CPU 0 instructions: 5000001 cycles: 2072176 (Simulation time: 0 hr 16 min 57 sec) 

Heartbeat CPU 0 instructions: 5000003 cycles: 2884306 heartbeat IPC: 1.72934 cumulative IPC: 1.73352 (Simulation time: 0 hr 16 min 57 sec) 

Warmup complete CPU 0 instructions: 5000003 cycles: 2884306 (Simulation time: 0 hr 16 min 57 sec) 

Heartbeat CPU 0 instructions: 5000001 cycles: 2171253 heartbeat IPC: 2.22784 cumulative IPC: 2.30282 (Simulation time: 0 hr 16 min 59 sec) 

Warmup complete CPU 0 instructions: 5000001 cycles: 2171253 (Simulation time: 0 hr 16 min 59 sec) 

Heartbeat CPU 0 instructions: 4000000 cycles: 2380257 heartbeat IPC: 1.68012 cumulative IPC: 1.68049 (Simulation time: 0 hr 17 min 8 sec) 
Heartbeat CPU 0 instructions: 4000000 cycles: 2381472 heartbeat IPC: 1.60972 cumulative IPC: 1.67963 (Simulation time: 0 hr 17 min 8 sec) 
Heartbeat CPU 0 instructions: 4000000 cycles: 2370621 heartbeat IPC: 1.68765 cumulative IPC: 1.68732 (Simulation time: 0 hr 17 min 12 sec) 
Heartbeat CPU 0 instructions: 5000000 cycles: 1803459 heartbeat IPC: 2.76181 cumulative IPC: 2.77245 (Simulation time: 0 hr 17 min 25 sec) 

Warmup complete CPU 0 instructions: 5000004 cycles: 1803460 (Simulation time: 0 hr 17 min 25 sec) 

Heartbeat CPU 0 instructions: 5000000 cycles: 2346967 heartbeat IPC: 2.21653 cumulative IPC: 2.13041 (Simulation time: 0 hr 17 min 26 sec) 

Warmup complete CPU 0 instructions: 5000003 cycles: 2346968 (Simulation time: 0 hr 17 min 26 sec) 

Heartbeat CPU 0 instructions: 5000002 cycles: 2691203 heartbeat IPC: 2.09094 cumulative IPC: 1.85791 (Simulation time: 0 hr 17 min 31 sec) 

Warmup complete CPU 0 instructions: 5000002 cycles: 2691203 (Simulation time: 0 hr 17 min 31 sec) 

Heartbeat CPU 0 instructions: 4000000 cycles: 2497342 heartbeat IPC: 1.51346 cumulative IPC: 1.6017 (Simulation time: 0 hr 17 min 40 sec) 
Heartbeat CPU 0 instructions: 5000003 cycles: 2548012 heartbeat IPC: 1.96457 cumulative IPC: 1.96232 (Simulation time: 0 hr 17 min 45 sec) 

Warmup complete CPU 0 instructions: 5000003 cycles: 2548012 (Simulation time: 0 hr 17 min 45 sec) 

Heartbeat CPU 0 instructions: 5000000 cycles: 2995748 heartbeat IPC: 1.668 cumulative IPC: 1.66903 (Simulation time: 0 hr 17 min 48 sec) 

Warmup complete CPU 0 instructions: 5000001 cycles: 2995749 (Simulation time: 0 hr 17 min 48 sec) 

Heartbeat CPU 0 instructions: 6000000 cycles: 3438409 heartbeat IPC: 1.15289 cumulative IPC: 1.15289 (Simulation time: 0 hr 17 min 51 sec) 
Heartbeat CPU 0 instructions: 5000003 cycles: 2322491 heartbeat IPC: 2.15319 cumulative IPC: 2.15286 (Simulation time: 0 hr 18 min 3 sec) 

Warmup complete CPU 0 instructions: 5000003 cycles: 2322491 (Simulation time: 0 hr 18 min 3 sec) 

Heartbeat CPU 0 instructions: 7000000 cycles: 2988311 heartbeat IPC: 1.82457 cumulative IPC: 1.77281 (Simulation time: 0 hr 18 min 11 sec) 
Heartbeat CPU 0 instructions: 6000002 cycles: 5754631 heartbeat IPC: 0.346202 cumulative IPC: 0.346201 (Simulation time: 0 hr 18 min 13 sec) 
Heartbeat CPU 0 instructions: 5000002 cycles: 2749347 heartbeat IPC: 1.81857 cumulative IPC: 1.81861 (Simulation time: 0 hr 18 min 14 sec) 

Warmup complete CPU 0 instructions: 5000002 cycles: 2749347 (Simulation time: 0 hr 18 min 14 sec) 

Heartbeat CPU 0 instructions: 7000001 cycles: 3552712 heartbeat IPC: 2.09629 cumulative IPC: 2.10386 (Simulation time: 0 hr 18 min 18 sec) 
Heartbeat CPU 0 instructions: 5000001 cycles: 2666043 heartbeat IPC: 1.87747 cumulative IPC: 1.87544 (Simulation time: 0 hr 18 min 28 sec) 

Warmup complete CPU 0 instructions: 5000001 cycles: 2666043 (Simulation time: 0 hr 18 min 28 sec) 

Heartbeat CPU 0 instructions: 5000000 cycles: 2651055 heartbeat IPC: 1.88114 cumulative IPC: 1.88604 (Simulation time: 0 hr 18 min 32 sec) 

Warmup complete CPU 0 instructions: 5000001 cycles: 2651058 (Simulation time: 0 hr 18 min 32 sec) 

Heartbeat CPU 0 instructions: 6000000 cycles: 2905684 heartbeat IPC: 1.15159 cumulative IPC: 1.15159 (Simulation time: 0 hr 18 min 33 sec) 
Heartbeat CPU 0 instructions: 7000001 cycles: 5847987 heartbeat IPC: 0.457923 cumulative IPC: 0.478319 (Simulation time: 0 hr 18 min 36 sec) 
Heartbeat CPU 0 instructions: 7000002 cycles: 8040662 heartbeat IPC: 0.310587 cumulative IPC: 0.310166 (Simulation time: 0 hr 18 min 43 sec) 
Heartbeat CPU 0 instructions: 7000001 cycles: 7987048 heartbeat IPC: 0.31404 cumulative IPC: 0.312001 (Simulation time: 0 hr 18 min 47 sec) 
Heartbeat CPU 0 instructions: 6000000 cycles: 5911265 heartbeat IPC: 0.331421 cumulative IPC: 0.331421 (Simulation time: 0 hr 19 min 3 sec) 
Heartbeat CPU 0 instructions: 6000000 cycles: 3890871 heartbeat IPC: 0.535174 cumulative IPC: 0.535174 (Simulation time: 0 hr 19 min 16 sec) 
Heartbeat CPU 0 instructions: 5000002 cycles: 2477397 heartbeat IPC: 2.02601 cumulative IPC: 2.01825 (Simulation time: 0 hr 19 min 16 sec) 

Warmup complete CPU 0 instructions: 5000002 cycles: 2477397 (Simulation time: 0 hr 19 min 16 sec) 

Heartbeat CPU 0 instructions: 6000002 cycles: 3709353 heartbeat IPC: 0.571948 cumulative IPC: 0.571946 (Simulation time: 0 hr 19 min 21 sec) 
Heartbeat CPU 0 instructions: 5000000 cycles: 2477780 heartbeat IPC: 2.07208 cumulative IPC: 2.01794 (Simulation time: 0 hr 19 min 22 sec) 

Warmup complete CPU 0 instructions: 5000004 cycles: 2477781 (Simulation time: 0 hr 19 min 22 sec) 

Heartbeat CPU 0 instructions: 5000002 cycles: 2498085 heartbeat IPC: 2.03707 cumulative IPC: 2.00153 (Simulation time: 0 hr 19 min 27 sec) 

Warmup complete CPU 0 instructions: 5000002 cycles: 2498085 (Simulation time: 0 hr 19 min 27 sec) 

Heartbeat CPU 0 instructions: 6000000 cycles: 3553611 heartbeat IPC: 0.725297 cumulative IPC: 0.725297 (Simulation time: 0 hr 19 min 40 sec) 
Heartbeat CPU 0 instructions: 4000000 cycles: 2372043 heartbeat IPC: 1.68724 cumulative IPC: 1.68631 (Simulation time: 0 hr 19 min 41 sec) 
Heartbeat CPU 0 instructions: 6000000 cycles: 4953424 heartbeat IPC: 0.343079 cumulative IPC: 0.343078 (Simulation time: 0 hr 19 min 42 sec) 
Heartbeat CPU 0 instructions: 6000001 cycles: 3900218 heartbeat IPC: 0.678056 cumulative IPC: 0.678053 (Simulation time: 0 hr 19 min 46 sec) 
Heartbeat CPU 0 instructions: 6000002 cycles: 4075400 heartbeat IPC: 0.452454 cumulative IPC: 0.452454 (Simulation time: 0 hr 19 min 53 sec) 
Heartbeat CPU 0 instructions: 6000002 cycles: 3673696 heartbeat IPC: 0.584249 cumulative IPC: 0.584249 (Simulation time: 0 hr 19 min 57 sec) 
Heartbeat CPU 0 instructions: 6000000 cycles: 4591537 heartbeat IPC: 0.38396 cumulative IPC: 0.383959 (Simulation time: 0 hr 19 min 58 sec) 
Heartbeat CPU 0 instructions: 5000000 cycles: 3014414 heartbeat IPC: 1.43895 cumulative IPC: 1.6587 (Simulation time: 0 hr 20 min 0 sec) 

Warmup complete CPU 0 instructions: 5000004 cycles: 3014416 (Simulation time: 0 hr 20 min 0 sec) 

Heartbeat CPU 0 instructions: 6000000 cycles: 3833180 heartbeat IPC: 0.521857 cumulative IPC: 0.521857 (Simulation time: 0 hr 20 min 1 sec) 
Heartbeat CPU 0 instructions: 6000002 cycles: 3537864 heartbeat IPC: 0.609513 cumulative IPC: 0.609513 (Simulation time: 0 hr 20 min 2 sec) 
Heartbeat CPU 0 instructions: 5000002 cycles: 4738254 heartbeat IPC: 1.12407 cumulative IPC: 1.05524 (Simulation time: 0 hr 20 min 8 sec) 

Warmup complete CPU 0 instructions: 5000002 cycles: 4738254 (Simulation time: 0 hr 20 min 8 sec) 

Heartbeat CPU 0 instructions: 6000002 cycles: 3131508 heartbeat IPC: 0.973349 cumulative IPC: 0.973349 (Simulation time: 0 hr 20 min 9 sec) 
Heartbeat CPU 0 instructions: 6000000 cycles: 4035324 heartbeat IPC: 0.509385 cumulative IPC: 0.509385 (Simulation time: 0 hr 20 min 22 sec) 
Heartbeat CPU 0 instructions: 5000002 cycles: 3062201 heartbeat IPC: 1.78529 cumulative IPC: 1.63281 (Simulation time: 0 hr 20 min 29 sec) 

Warmup complete CPU 0 instructions: 5000002 cycles: 3062201 (Simulation time: 0 hr 20 min 29 sec) 

Heartbeat CPU 0 instructions: 6000001 cycles: 2984440 heartbeat IPC: 1.5687 cumulative IPC: 1.56869 (Simulation time: 0 hr 20 min 29 sec) 
Heartbeat CPU 0 instructions: 6000000 cycles: 3507343 heartbeat IPC: 0.741934 cumulative IPC: 0.741934 (Simulation time: 0 hr 20 min 32 sec) 
Heartbeat CPU 0 instructions: 5000001 cycles: 3158592 heartbeat IPC: 1.58794 cumulative IPC: 1.58298 (Simulation time: 0 hr 20 min 37 sec) 

Warmup complete CPU 0 instructions: 5000001 cycles: 3158592 (Simulation time: 0 hr 20 min 37 sec) 

Heartbeat CPU 0 instructions: 5000000 cycles: 3057903 heartbeat IPC: 1.6507 cumulative IPC: 1.63511 (Simulation time: 0 hr 20 min 47 sec) 

Warmup complete CPU 0 instructions: 5000002 cycles: 3057904 (Simulation time: 0 hr 20 min 47 sec) 

Heartbeat CPU 0 instructions: 5000002 cycles: 3302449 heartbeat IPC: 1.47549 cumulative IPC: 1.51403 (Simulation time: 0 hr 20 min 53 sec) 

Warmup complete CPU 0 instructions: 5000002 cycles: 3302449 (Simulation time: 0 hr 20 min 53 sec) 

Heartbeat CPU 0 instructions: 6000000 cycles: 4588330 heartbeat IPC: 0.359083 cumulative IPC: 0.359082 (Simulation time: 0 hr 20 min 57 sec) 
Heartbeat CPU 0 instructions: 5000003 cycles: 3163355 heartbeat IPC: 1.58112 cumulative IPC: 1.5806 (Simulation time: 0 hr 21 min 1 sec) 

Warmup complete CPU 0 instructions: 5000003 cycles: 3163355 (Simulation time: 0 hr 21 min 1 sec) 

Heartbeat CPU 0 instructions: 8000000 cycles: 4026025 heartbeat IPC: 2.11276 cumulative IPC: 2.10682 (Simulation time: 0 hr 21 min 2 sec) 
Heartbeat CPU 0 instructions: 8000000 cycles: 3535767 heartbeat IPC: 1.82663 cumulative IPC: 1.79039 (Simulation time: 0 hr 21 min 15 sec) 
Heartbeat CPU 0 instructions: 5000000 cycles: 3123523 heartbeat IPC: 1.46972 cumulative IPC: 1.60076 (Simulation time: 0 hr 21 min 17 sec) 

Warmup complete CPU 0 instructions: 5000004 cycles: 3123524 (Simulation time: 0 hr 21 min 17 sec) 

Heartbeat CPU 0 instructions: 5000000 cycles: 2884159 heartbeat IPC: 1.73322 cumulative IPC: 1.73361 (Simulation time: 0 hr 21 min 22 sec) 

Warmup complete CPU 0 instructions: 5000004 cycles: 2884160 (Simulation time: 0 hr 21 min 22 sec) 

Heartbeat CPU 0 instructions: 6000003 cycles: 4216266 heartbeat IPC: 0.612044 cumulative IPC: 0.612044 (Simulation time: 0 hr 21 min 23 sec) 
Heartbeat CPU 0 instructions: 5000002 cycles: 2957002 heartbeat IPC: 1.73753 cumulative IPC: 1.6909 (Simulation time: 0 hr 21 min 23 sec) 

Warmup complete CPU 0 instructions: 5000002 cycles: 2957002 (Simulation time: 0 hr 21 min 23 sec) 

Heartbeat CPU 0 instructions: 5000001 cycles: 2975033 heartbeat IPC: 1.68131 cumulative IPC: 1.68065 (Simulation time: 0 hr 21 min 35 sec) 

Warmup complete CPU 0 instructions: 5000001 cycles: 2975033 (Simulation time: 0 hr 21 min 35 sec) 

Heartbeat CPU 0 instructions: 7000000 cycles: 4389588 heartbeat IPC: 1.05133 cumulative IPC: 1.09977 (Simulation time: 0 hr 21 min 34 sec) 
Heartbeat CPU 0 instructions: 6000003 cycles: 5270109 heartbeat IPC: 0.419146 cumulative IPC: 0.419146 (Simulation time: 0 hr 21 min 41 sec) 
Heartbeat CPU 0 instructions: 7000000 cycles: 8780390 heartbeat IPC: 0.330495 cumulative IPC: 0.338166 (Simulation time: 0 hr 21 min 42 sec) 
Heartbeat CPU 0 instructions: 5000000 cycles: 2963700 heartbeat IPC: 1.68612 cumulative IPC: 1.68708 (Simulation time: 0 hr 21 min 46 sec) 

Warmup complete CPU 0 instructions: 5000004 cycles: 2963701 (Simulation time: 0 hr 21 min 46 sec) 

Heartbeat CPU 0 instructions: 5000001 cycles: 3085110 heartbeat IPC: 1.70135 cumulative IPC: 1.62069 (Simulation time: 0 hr 21 min 51 sec) 

Warmup complete CPU 0 instructions: 5000001 cycles: 3085110 (Simulation time: 0 hr 21 min 51 sec) 

Heartbeat CPU 0 instructions: 6000000 cycles: 3914634 heartbeat IPC: 0.731729 cumulative IPC: 0.731729 (Simulation time: 0 hr 21 min 59 sec) 
Heartbeat CPU 0 instructions: 8000000 cycles: 8140624 heartbeat IPC: 0.436179 cumulative IPC: 0.463396 (Simulation time: 0 hr 22 min 3 sec) 
Heartbeat CPU 0 instructions: 6000001 cycles: 3243959 heartbeat IPC: 1.08522 cumulative IPC: 1.08522 (Simulation time: 0 hr 22 min 20 sec) 
Heartbeat CPU 0 instructions: 7000002 cycles: 3778956 heartbeat IPC: 1.14512 cumulative IPC: 1.14835 (Simulation time: 0 hr 22 min 20 sec) 
Heartbeat CPU 0 instructions: 6000001 cycles: 4812623 heartbeat IPC: 0.550396 cumulative IPC: 0.550396 (Simulation time: 0 hr 22 min 25 sec) 
Heartbeat CPU 0 instructions: 8000000 cycles: 11186317 heartbeat IPC: 0.312571 cumulative IPC: 0.312191 (Simulation time: 0 hr 22 min 28 sec) 
Heartbeat CPU 0 instructions: 8000000 cycles: 11176021 heartbeat IPC: 0.318942 cumulative IPC: 0.313037 (Simulation time: 0 hr 22 min 28 sec) 
Heartbeat CPU 0 instructions: 6000000 cycles: 7077853 heartbeat IPC: 0.203807 cumulative IPC: 0.203807 (Simulation time: 0 hr 22 min 30 sec) 
Heartbeat CPU 0 instructions: 6000001 cycles: 4698143 heartbeat IPC: 0.513137 cumulative IPC: 0.513137 (Simulation time: 0 hr 22 min 41 sec) 
Heartbeat CPU 0 instructions: 6000001 cycles: 4322834 heartbeat IPC: 0.603576 cumulative IPC: 0.603576 (Simulation time: 0 hr 22 min 47 sec) 
Heartbeat CPU 0 instructions: 7000002 cycles: 4764772 heartbeat IPC: 0.825656 cumulative IPC: 0.77223 (Simulation time: 0 hr 22 min 51 sec) 
Heartbeat CPU 0 instructions: 7000000 cycles: 9785148 heartbeat IPC: 0.258139 cumulative IPC: 0.290225 (Simulation time: 0 hr 22 min 53 sec) 
Heartbeat CPU 0 instructions: 6000003 cycles: 6987364 heartbeat IPC: 0.232766 cumulative IPC: 0.232766 (Simulation time: 0 hr 22 min 55 sec) 
Heartbeat CPU 0 instructions: 7000001 cycles: 5479144 heartbeat IPC: 0.633342 cumulative IPC: 0.654935 (Simulation time: 0 hr 23 min 9 sec) 
Heartbeat CPU 0 instructions: 7000002 cycles: 7585747 heartbeat IPC: 0.379893 cumulative IPC: 0.360549 (Simulation time: 0 hr 23 min 9 sec) 
Heartbeat CPU 0 instructions: 6000000 cycles: 4821686 heartbeat IPC: 0.460696 cumulative IPC: 0.460696 (Simulation time: 0 hr 23 min 14 sec) 
Heartbeat CPU 0 instructions: 7000000 cycles: 5429684 heartbeat IPC: 0.581282 cumulative IPC: 0.576577 (Simulation time: 0 hr 23 min 27 sec) 
Heartbeat CPU 0 instructions: 7000001 cycles: 5970883 heartbeat IPC: 0.480767 cumulative IPC: 0.506514 (Simulation time: 0 hr 23 min 28 sec) 
Heartbeat CPU 0 instructions: 7000000 cycles: 3542426 heartbeat IPC: 1.79216 cumulative IPC: 1.673 (Simulation time: 0 hr 23 min 28 sec) 
Heartbeat CPU 0 instructions: 7000003 cycles: 4155251 heartbeat IPC: 0.976809 cumulative IPC: 0.975076 (Simulation time: 0 hr 23 min 34 sec) 
Heartbeat CPU 0 instructions: 9000001 cycles: 4502728 heartbeat IPC: 2.09774 cumulative IPC: 2.10454 (Simulation time: 0 hr 23 min 47 sec) 
Heartbeat CPU 0 instructions: 7000002 cycles: 5762001 heartbeat IPC: 0.518452 cumulative IPC: 0.520149 (Simulation time: 0 hr 23 min 48 sec) 
Heartbeat CPU 0 instructions: 7000001 cycles: 5680680 heartbeat IPC: 0.622944 cumulative IPC: 0.524185 (Simulation time: 0 hr 24 min 3 sec) 
Heartbeat CPU 0 instructions: 7000000 cycles: 7110587 heartbeat IPC: 0.396975 cumulative IPC: 0.390358 (Simulation time: 0 hr 24 min 3 sec) 
Heartbeat CPU 0 instructions: 7000000 cycles: 5153553 heartbeat IPC: 0.61893 cumulative IPC: 0.614185 (Simulation time: 0 hr 24 min 14 sec) 
Heartbeat CPU 0 instructions: 9000000 cycles: 4082145 heartbeat IPC: 1.83023 cumulative IPC: 1.80019 (Simulation time: 0 hr 24 min 16 sec) 
Heartbeat CPU 0 instructions: 6000000 cycles: 6128534 heartbeat IPC: 0.719278 cumulative IPC: 0.719278 (Simulation time: 0 hr 24 min 21 sec) 
Heartbeat CPU 0 instructions: 7000000 cycles: 7710367 heartbeat IPC: 0.320304 cumulative IPC: 0.338586 (Simulation time: 0 hr 24 min 24 sec) 
Heartbeat CPU 0 instructions: 7000003 cycles: 5472510 heartbeat IPC: 0.555922 cumulative IPC: 0.569734 (Simulation time: 0 hr 24 min 30 sec) 
Heartbeat CPU 0 instructions: 5000000 cycles: 2964991 heartbeat IPC: 1.68649 cumulative IPC: 1.68635 (Simulation time: 0 hr 24 min 34 sec) 

Warmup complete CPU 0 instructions: 5000004 cycles: 2964992 (Simulation time: 0 hr 24 min 34 sec) 

Heartbeat CPU 0 instructions: 6000002 cycles: 4830037 heartbeat IPC: 0.550776 cumulative IPC: 0.550775 (Simulation time: 0 hr 24 min 34 sec) 
Heartbeat CPU 0 instructions: 6000000 cycles: 13598636 heartbeat IPC: 0.0900854 cumulative IPC: 0.0900854 (Simulation time: 0 hr 24 min 59 sec) 
Heartbeat CPU 0 instructions: 8000000 cycles: 12228146 heartbeat IPC: 0.290044 cumulative IPC: 0.320444 (Simulation time: 0 hr 25 min 2 sec) 
Heartbeat CPU 0 instructions: 8000000 cycles: 5410837 heartbeat IPC: 0.979193 cumulative IPC: 1.05641 (Simulation time: 0 hr 25 min 9 sec) 
Heartbeat CPU 0 instructions: 9000001 cycles: 10438982 heartbeat IPC: 0.435094 cumulative IPC: 0.455981 (Simulation time: 0 hr 25 min 25 sec) 
Heartbeat CPU 0 instructions: 7000000 cycles: 4855253 heartbeat IPC: 0.741889 cumulative IPC: 0.741912 (Simulation time: 0 hr 25 min 28 sec) 
Heartbeat CPU 0 instructions: 6000003 cycles: 9556007 heartbeat IPC: 0.141279 cumulative IPC: 0.141278 (Simulation time: 0 hr 25 min 29 sec) 
Heartbeat CPU 0 instructions: 6000001 cycles: 14543955 heartbeat IPC: 0.0828736 cumulative IPC: 0.0828736 (Simulation time: 0 hr 25 min 30 sec) 
Heartbeat CPU 0 instructions: 7000001 cycles: 8748294 heartbeat IPC: 0.212181 cumulative IPC: 0.299575 (Simulation time: 0 hr 25 min 31 sec) 
Heartbeat CPU 0 instructions: 7000000 cycles: 5841926 heartbeat IPC: 0.615133 cumulative IPC: 0.613585 (Simulation time: 0 hr 25 min 40 sec) 
Heartbeat CPU 0 instructions: 6000000 cycles: 5127941 heartbeat IPC: 0.484087 cumulative IPC: 0.484087 (Simulation time: 0 hr 25 min 43 sec) 
Heartbeat CPU 0 instructions: 9000002 cycles: 14420761 heartbeat IPC: 0.309173 cumulative IPC: 0.311431 (Simulation time: 0 hr 25 min 45 sec) 
Heartbeat CPU 0 instructions: 6000001 cycles: 5872632 heartbeat IPC: 0.368454 cumulative IPC: 0.368454 (Simulation time: 0 hr 25 min 46 sec) 
Heartbeat CPU 0 instructions: 8000000 cycles: 6701467 heartbeat IPC: 0.818114 cumulative IPC: 0.70158 (Simulation time: 0 hr 25 min 51 sec) 
Heartbeat CPU 0 instructions: 7000000 cycles: 8987643 heartbeat IPC: 0.523618 cumulative IPC: 0.29341 (Simulation time: 0 hr 25 min 57 sec) 
Heartbeat CPU 0 instructions: 8000000 cycles: 10831470 heartbeat IPC: 0.955729 cumulative IPC: 0.377952 (Simulation time: 0 hr 26 min 4 sec) 
Heartbeat CPU 0 instructions: 8000000 cycles: 5875029 heartbeat IPC: 0.900691 cumulative IPC: 0.810775 (Simulation time: 0 hr 26 min 7 sec) 
Heartbeat CPU 0 instructions: 8000000 cycles: 4648701 heartbeat IPC: 1.14976 cumulative IPC: 1.14882 (Simulation time: 0 hr 26 min 9 sec) 
Heartbeat CPU 0 instructions: 6000000 cycles: 5131200 heartbeat IPC: 0.482324 cumulative IPC: 0.482323 (Simulation time: 0 hr 26 min 14 sec) 
Heartbeat CPU 0 instructions: 6000003 cycles: 5445878 heartbeat IPC: 0.430599 cumulative IPC: 0.430597 (Simulation time: 0 hr 26 min 16 sec) 
Heartbeat CPU 0 instructions: 7000001 cycles: 5305651 heartbeat IPC: 0.718899 cumulative IPC: 0.725257 (Simulation time: 0 hr 26 min 16 sec) 
Heartbeat CPU 0 instructions: 6000002 cycles: 5096258 heartbeat IPC: 0.471426 cumulative IPC: 0.471426 (Simulation time: 0 hr 26 min 27 sec) 
Heartbeat CPU 0 instructions: 9000000 cycles: 13181953 heartbeat IPC: 0.498521 cumulative IPC: 0.345141 (Simulation time: 0 hr 26 min 27 sec) 
Heartbeat CPU 0 instructions: 10000001 cycles: 4976169 heartbeat IPC: 2.1122 cumulative IPC: 2.10607 (Simulation time: 0 hr 26 min 29 sec) 
Heartbeat CPU 0 instructions: 8000000 cycles: 5218976 heartbeat IPC: 0.94009 cumulative IPC: 0.963128 (Simulation time: 0 hr 26 min 30 sec) 
Heartbeat CPU 0 instructions: 6000002 cycles: 5078266 heartbeat IPC: 0.472911 cumulative IPC: 0.47291 (Simulation time: 0 hr 26 min 37 sec) 
Heartbeat CPU 0 instructions: 8000000 cycles: 4095056 heartbeat IPC: 1.80953 cumulative IPC: 1.71616 (Simulation time: 0 hr 26 min 40 sec) 
Heartbeat CPU 0 instructions: 6000001 cycles: 13038007 heartbeat IPC: 0.102716 cumulative IPC: 0.102716 (Simulation time: 0 hr 26 min 44 sec) 
Heartbeat CPU 0 instructions: 7000001 cycles: 4166510 heartbeat IPC: 1.08395 cumulative IPC: 1.08459 (Simulation time: 0 hr 26 min 45 sec) 
Heartbeat CPU 0 instructions: 6000003 cycles: 5728197 heartbeat IPC: 0.378346 cumulative IPC: 0.378346 (Simulation time: 0 hr 26 min 46 sec) 
Heartbeat CPU 0 instructions: 7000001 cycles: 6602001 heartbeat IPC: 0.558853 cumulative IPC: 0.554592 (Simulation time: 0 hr 26 min 55 sec) 
Heartbeat CPU 0 instructions: 6000002 cycles: 6656271 heartbeat IPC: 0.286293 cumulative IPC: 0.286293 (Simulation time: 0 hr 27 min 4 sec) 
Heartbeat CPU 0 instructions: 6000000 cycles: 5543209 heartbeat IPC: 0.376074 cumulative IPC: 0.376073 (Simulation time: 0 hr 27 min 7 sec) 
Heartbeat CPU 0 instructions: 7000000 cycles: 5968478 heartbeat IPC: 0.607664 cumulative IPC: 0.605613 (Simulation time: 0 hr 27 min 6 sec) 
Heartbeat CPU 0 instructions: 7000000 cycles: 7691774 heartbeat IPC: 0.412938 cumulative IPC: 0.416019 (Simulation time: 0 hr 27 min 6 sec) 
Heartbeat CPU 0 instructions: 7000000 cycles: 6634071 heartbeat IPC: 0.516548 cumulative IPC: 0.514837 (Simulation time: 0 hr 27 min 12 sec) 
Heartbeat CPU 0 instructions: 8000000 cycles: 8934240 heartbeat IPC: 0.54835 cumulative IPC: 0.431832 (Simulation time: 0 hr 27 min 21 sec) 
Heartbeat CPU 0 instructions: 8000000 cycles: 7251638 heartbeat IPC: 0.548861 cumulative IPC: 0.567032 (Simulation time: 0 hr 27 min 23 sec) 
Heartbeat CPU 0 instructions: 8000000 cycles: 10505242 heartbeat IPC: 0.357798 cumulative IPC: 0.344757 (Simulation time: 0 hr 27 min 24 sec) 
Heartbeat CPU 0 instructions: 7000001 cycles: 7001647 heartbeat IPC: 0.458724 cumulative IPC: 0.459708 (Simulation time: 0 hr 27 min 27 sec) 
Heartbeat CPU 0 instructions: 8000000 cycles: 7711338 heartbeat IPC: 0.574562 cumulative IPC: 0.527332 (Simulation time: 0 hr 27 min 29 sec) 
Heartbeat CPU 0 instructions: 10000002 cycles: 5048303 heartbeat IPC: 1.03503 cumulative IPC: 1.56831 (Simulation time: 0 hr 27 min 43 sec) 
Heartbeat CPU 0 instructions: 8000000 cycles: 7693226 heartbeat IPC: 0.517805 cumulative IPC: 0.519365 (Simulation time: 0 hr 27 min 46 sec) 
Heartbeat CPU 0 instructions: 7000002 cycles: 11398225 heartbeat IPC: 0.226713 cumulative IPC: 0.2297 (Simulation time: 0 hr 27 min 51 sec) 
Heartbeat CPU 0 instructions: 6000003 cycles: 7582269 heartbeat IPC: 0.216204 cumulative IPC: 0.216204 (Simulation time: 0 hr 27 min 58 sec) 
Heartbeat CPU 0 instructions: 8000000 cycles: 11268075 heartbeat IPC: 0.271567 cumulative IPC: 0.325047 (Simulation time: 0 hr 28 min 0 sec) 
Heartbeat CPU 0 instructions: 8000000 cycles: 7336765 heartbeat IPC: 0.603833 cumulative IPC: 0.548292 (Simulation time: 0 hr 28 min 13 sec) 
Heartbeat CPU 0 instructions: 8000000 cycles: 6836901 heartbeat IPC: 0.594054 cumulative IPC: 0.607325 (Simulation time: 0 hr 28 min 15 sec) 
Heartbeat CPU 0 instructions: 9000001 cycles: 15404503 heartbeat IPC: 0.314826 cumulative IPC: 0.319021 (Simulation time: 0 hr 28 min 22 sec) 
Heartbeat CPU 0 instructions: 8000000 cycles: 7195407 heartbeat IPC: 0.580416 cumulative IPC: 0.57325 (Simulation time: 0 hr 28 min 24 sec) 
Heartbeat CPU 0 instructions: 9000000 cycles: 6353546 heartbeat IPC: 1.06077 cumulative IPC: 1.0575 (Simulation time: 0 hr 28 min 41 sec) 
Heartbeat CPU 0 instructions: 7000000 cycles: 7492454 heartbeat IPC: 0.733181 cumulative IPC: 0.726163 (Simulation time: 0 hr 28 min 42 sec) 
Heartbeat CPU 0 instructions: 9000003 cycles: 7999026 heartbeat IPC: 0.77068 cumulative IPC: 0.717667 (Simulation time: 0 hr 28 min 45 sec) 
Heartbeat CPU 0 instructions: 10000000 cycles: 12735026 heartbeat IPC: 0.435531 cumulative IPC: 0.451738 (Simulation time: 0 hr 28 min 57 sec) 
Heartbeat CPU 0 instructions: 7000001 cycles: 6657280 heartbeat IPC: 0.547272 cumulative IPC: 0.549018 (Simulation time: 0 hr 28 min 59 sec) 
Heartbeat CPU 0 instructions: 9000001 cycles: 11879028 heartbeat IPC: 0.954602 cumulative IPC: 0.445183 (Simulation time: 0 hr 29 min 2 sec) 
Heartbeat CPU 0 instructions: 11000002 cycles: 5453066 heartbeat IPC: 2.09689 cumulative IPC: 2.10453 (Simulation time: 0 hr 29 min 8 sec) 
Heartbeat CPU 0 instructions: 9000000 cycles: 7175680 heartbeat IPC: 0.768846 cumulative IPC: 0.79987 (Simulation time: 0 hr 29 min 10 sec) 
Heartbeat CPU 0 instructions: 10000003 cycles: 17555205 heartbeat IPC: 0.319036 cumulative IPC: 0.312923 (Simulation time: 0 hr 29 min 24 sec) 
Heartbeat CPU 0 instructions: 9000000 cycles: 6244656 heartbeat IPC: 0.974963 cumulative IPC: 0.96606 (Simulation time: 0 hr 29 min 48 sec) 
Heartbeat CPU 0 instructions: 9000000 cycles: 4658335 heartbeat IPC: 1.77532 cumulative IPC: 1.73058 (Simulation time: 0 hr 29 min 48 sec) 
Heartbeat CPU 0 instructions: 8000000 cycles: 11880804 heartbeat IPC: 0.345643 cumulative IPC: 0.308974 (Simulation time: 0 hr 29 min 55 sec) 
Heartbeat CPU 0 instructions: 8000000 cycles: 6267515 heartbeat IPC: 0.708084 cumulative IPC: 0.730282 (Simulation time: 0 hr 30 min 2 sec) 
Heartbeat CPU 0 instructions: 9000000 cycles: 5522095 heartbeat IPC: 1.14496 cumulative IPC: 1.14785 (Simulation time: 0 hr 30 min 5 sec) 
Heartbeat CPU 0 instructions: 8000000 cycles: 7464681 heartbeat IPC: 0.616236 cumulative IPC: 0.614466 (Simulation time: 0 hr 30 min 17 sec) 
Heartbeat CPU 0 instructions: 9000000 cycles: 13311121 heartbeat IPC: 0.356395 cumulative IPC: 0.347594 (Simulation time: 0 hr 30 min 25 sec) 
Heartbeat CPU 0 instructions: 10000002 cycles: 15181855 heartbeat IPC: 0.500026 cumulative IPC: 0.367935 (Simulation time: 0 hr 30 min 32 sec) 
Heartbeat CPU 0 instructions: 8000000 cycles: 6688502 heartbeat IPC: 0.723143 cumulative IPC: 0.724551 (Simulation time: 0 hr 30 min 46 sec) 
Heartbeat CPU 0 instructions: 8000000 cycles: 12957489 heartbeat IPC: 0.237575 cumulative IPC: 0.275601 (Simulation time: 0 hr 30 min 46 sec) 
Heartbeat CPU 0 instructions: 7000002 cycles: 8921433 heartbeat IPC: 0.327998 cumulative IPC: 0.347051 (Simulation time: 0 hr 30 min 47 sec) 
Heartbeat CPU 0 instructions: 6000001 cycles: 4989627 heartbeat IPC: 0.493916 cumulative IPC: 0.493915 (Simulation time: 0 hr 30 min 49 sec) 
Heartbeat CPU 0 instructions: 7000000 cycles: 7226538 heartbeat IPC: 0.469421 cumulative IPC: 0.470421 (Simulation time: 0 hr 30 min 54 sec) 
Heartbeat CPU 0 instructions: 11000001 cycles: 5663441 heartbeat IPC: 1.62565 cumulative IPC: 1.57758 (Simulation time: 0 hr 30 min 54 sec) 
Heartbeat CPU 0 instructions: 7000002 cycles: 7097075 heartbeat IPC: 0.507838 cumulative IPC: 0.495678 (Simulation time: 0 hr 30 min 54 sec) 
Heartbeat CPU 0 instructions: 7000002 cycles: 7749939 heartbeat IPC: 0.434016 cumulative IPC: 0.4323 (Simulation time: 0 hr 31 min 11 sec) 
Heartbeat CPU 0 instructions: 9000000 cycles: 10630463 heartbeat IPC: 0.589545 cumulative IPC: 0.462782 (Simulation time: 0 hr 31 min 11 sec) 
Heartbeat CPU 0 instructions: 7000001 cycles: 7115084 heartbeat IPC: 0.504062 cumulative IPC: 0.492953 (Simulation time: 0 hr 31 min 17 sec) 
Heartbeat CPU 0 instructions: 9000003 cycles: 9626203 heartbeat IPC: 0.517338 cumulative IPC: 0.518857 (Simulation time: 0 hr 31 min 17 sec) 
Heartbeat CPU 0 instructions: 7000000 cycles: 8383151 heartbeat IPC: 0.376653 cumulative IPC: 0.377498 (Simulation time: 0 hr 31 min 24 sec) 
Heartbeat CPU 0 instructions: 8000000 cycles: 5089586 heartbeat IPC: 1.08333 cumulative IPC: 1.08417 (Simulation time: 0 hr 31 min 26 sec) 
Heartbeat CPU 0 instructions: 7000002 cycles: 27636377 heartbeat IPC: 0.0712367 cumulative IPC: 0.0795599 (Simulation time: 0 hr 31 min 27 sec) 
Heartbeat CPU 0 instructions: 9000000 cycles: 9024138 heartbeat IPC: 0.564175 cumulative IPC: 0.566315 (Simulation time: 0 hr 31 min 32 sec) 
Heartbeat CPU 0 instructions: 9000003 cycles: 9615613 heartbeat IPC: 0.525136 cumulative IPC: 0.526781 (Simulation time: 0 hr 31 min 34 sec) 
Heartbeat CPU 0 instructions: 7000001 cycles: 7182668 heartbeat IPC: 0.475194 cumulative IPC: 0.474049 (Simulation time: 0 hr 31 min 35 sec) 
Heartbeat CPU 0 instructions: 8000000 cycles: 8432840 heartbeat IPC: 0.546197 cumulative IPC: 0.551765 (Simulation time: 0 hr 31 min 38 sec) 
Heartbeat CPU 0 instructions: 12000000 cycles: 5929530 heartbeat IPC: 2.09879 cumulative IPC: 2.10371 (Simulation time: 0 hr 31 min 40 sec) 
Heartbeat CPU 0 instructions: 8000000 cycles: 9151984 heartbeat IPC: 0.465043 cumulative IPC: 0.461473 (Simulation time: 0 hr 31 min 42 sec) 
Heartbeat CPU 0 instructions: 8000000 cycles: 8571939 heartbeat IPC: 0.516031 cumulative IPC: 0.515234 (Simulation time: 0 hr 31 min 42 sec) 
Heartbeat CPU 0 instructions: 8000000 cycles: 7633825 heartbeat IPC: 0.600475 cumulative IPC: 0.603891 (Simulation time: 0 hr 31 min 44 sec) 
Heartbeat CPU 0 instructions: 10000000 cycles: 18908007 heartbeat IPC: 0.285428 cumulative IPC: 0.311684 (Simulation time: 0 hr 31 min 47 sec) 
Heartbeat CPU 0 instructions: 7000000 cycles: 26628827 heartbeat IPC: 0.082748 cumulative IPC: 0.0828108 (Simulation time: 0 hr 31 min 47 sec) 
Heartbeat CPU 0 instructions: 10000002 cycles: 7212861 heartbeat IPC: 1.16372 cumulative IPC: 1.07716 (Simulation time: 0 hr 31 min 52 sec) 
Heartbeat CPU 0 instructions: 10000000 cycles: 9316775 heartbeat IPC: 0.758868 cumulative IPC: 0.725545 (Simulation time: 0 hr 31 min 55 sec) 
Heartbeat CPU 0 instructions: 9000001 cycles: 8928322 heartbeat IPC: 0.577063 cumulative IPC: 0.574199 (Simulation time: 0 hr 31 min 57 sec) 
Heartbeat CPU 0 instructions: 9000001 cycles: 14515280 heartbeat IPC: 0.307957 cumulative IPC: 0.320599 (Simulation time: 0 hr 31 min 56 sec) 
Heartbeat CPU 0 instructions: 10000003 cycles: 12924775 heartbeat IPC: 0.956256 cumulative IPC: 0.498464 (Simulation time: 0 hr 32 min 4 sec) 
Heartbeat CPU 0 instructions: 9000001 cycles: 8352416 heartbeat IPC: 0.659842 cumulative IPC: 0.619655 (Simulation time: 0 hr 32 min 7 sec) 
[...]
LLC TOTAL     ACCESS:      74305  HIT:      56006  MISS:      18299
LLC LOAD      ACCESS:      49411  HIT:      36288  MISS:      13123
LLC RFO       ACCESS:       9235  HIT:       4059  MISS:       5176
LLC PREFETCH  ACCESS:          0  HIT:          0  MISS:          0
LLC WRITEBACK ACCESS:      15659  HIT:      15659  MISS:          0
Heartbeat CPU 0 instructions: 41000000 cycles: 201091708 heartbeat IPC: 0.268695 cumulative IPC: 0.181451 (Simulation time: 3 hr 33 min 35 sec) 
Heartbeat CPU 0 instructions: 52000000 cycles: 404154163 heartbeat IPC: 0.111283 cumulative IPC: 0.11725 (Simulation time: 3 hr 33 min 44 sec) 
Heartbeat CPU 0 instructions: 47000002 cycles: 513712288 heartbeat IPC: 0.0834157 cumulative IPC: 0.0821573 (Simulation time: 3 hr 33 min 44 sec) 
Heartbeat CPU 0 instructions: 49000000 cycles: 119804227 heartbeat IPC: 0.267332 cumulative IPC: 0.374007 (Simulation time: 3 hr 33 min 51 sec) 
Heartbeat CPU 0 instructions: 54000002 cycles: 209621607 heartbeat IPC: 0.224221 cumulative IPC: 0.237099 (Simulation time: 3 hr 33 min 55 sec) 
Heartbeat CPU 0 instructions: 55000000 cycles: 106229551 heartbeat IPC: 0.534697 cumulative IPC: 0.482726 (Simulation time: 3 hr 33 min 56 sec) 
Finished CPU 0 instructions: 50000000 cycles: 103578495 cummulative IPC: 0.482726 (Simulation time: 3 hr 33 min 56 sec) 

ChampSim completed all CPUs

Region of Interest Statistics

CPU 0 cummulative IPC: 0.482726 instructions: 50000000 cycles: 103578495
LLC TOTAL     ACCESS:     198671  HIT:     123318  MISS:      75353
LLC LOAD      ACCESS:      85810  HIT:      26907  MISS:      58903
LLC RFO       ACCESS:      32316  HIT:      15900  MISS:      16416
LLC PREFETCH  ACCESS:          0  HIT:          0  MISS:          0
LLC WRITEBACK ACCESS:      80545  HIT:      80511  MISS:         34
Heartbeat CPU 0 instructions: 43000000 cycles: 331731286 heartbeat IPC: 0.20347 cumulative IPC: 0.115413 (Simulation time: 3 hr 33 min 56 sec) 
Heartbeat CPU 0 instructions: 55000000 cycles: 112676662 heartbeat IPC: 0.540429 cumulative IPC: 0.456144 (Simulation time: 3 hr 33 min 56 sec) 
Finished CPU 0 instructions: 50000002 cycles: 109614462 cummulative IPC: 0.456144 (Simulation time: 3 hr 33 min 56 sec) 

ChampSim completed all CPUs

Region of Interest Statistics

CPU 0 cummulative IPC: 0.456144 instructions: 50000002 cycles: 109614462
LLC TOTAL     ACCESS:    2288613  HIT:     823493  MISS:    1465120
LLC LOAD      ACCESS:    1470887  HIT:     489012  MISS:     981875
LLC RFO       ACCESS:     352037  HIT:      59849  MISS:     292188
LLC PREFETCH  ACCESS:          0  HIT:          0  MISS:          0
LLC WRITEBACK ACCESS:     465689  HIT:     274632  MISS:     191057
Heartbeat CPU 0 instructions: 54000000 cycles: 114762014 heartbeat IPC: 0.303445 cumulative IPC: 0.437978 (Simulation time: 3 hr 33 min 58 sec) 
Heartbeat CPU 0 instructions: 48000000 cycles: 504067438 heartbeat IPC: 0.129476 cumulative IPC: 0.0857274 (Simulation time: 3 hr 34 min 1 sec) 
Heartbeat CPU 0 instructions: 47000000 cycles: 139474999 heartbeat IPC: 0.306657 cumulative IPC: 0.308117 (Simulation time: 3 hr 34 min 3 sec) 
Heartbeat CPU 0 instructions: 42000000 cycles: 204819604 heartbeat IPC: 0.268248 cumulative IPC: 0.183052 (Simulation time: 3 hr 34 min 8 sec) 
Heartbeat CPU 0 instructions: 53000000 cycles: 411398805 heartbeat IPC: 0.138033 cumulative IPC: 0.117619 (Simulation time: 3 hr 34 min 13 sec) 
Heartbeat CPU 0 instructions: 41000002 cycles: 92769605 heartbeat IPC: 0.490057 cumulative IPC: 0.40087 (Simulation time: 3 hr 34 min 14 sec) 
Heartbeat CPU 0 instructions: 48000000 cycles: 525407739 heartbeat IPC: 0.0855032 cumulative IPC: 0.0822322 (Simulation time: 3 hr 34 min 26 sec) 
Heartbeat CPU 0 instructions: 55000001 cycles: 213879643 heartbeat IPC: 0.23485 cumulative IPC: 0.237054 (Simulation time: 3 hr 34 min 27 sec) 
Finished CPU 0 instructions: 50000001 cycles: 210922642 cummulative IPC: 0.237054 (Simulation time: 3 hr 34 min 27 sec) 

ChampSim completed all CPUs

Region of Interest Statistics

CPU 0 cummulative IPC: 0.237054 instructions: 50000001 cycles: 210922642
LLC TOTAL     ACCESS:    1600843  HIT:     738263  MISS:     862580
LLC LOAD      ACCESS:     958921  HIT:     258112  MISS:     700809
LLC RFO       ACCESS:     163873  HIT:      40065  MISS:     123808
LLC PREFETCH  ACCESS:          0  HIT:          0  MISS:          0
LLC WRITEBACK ACCESS:     478049  HIT:     440086  MISS:      37963
Heartbeat CPU 0 instructions: 55000002 cycles: 117782539 heartbeat IPC: 0.331069 cumulative IPC: 0.435167 (Simulation time: 3 hr 34 min 28 sec) 
Finished CPU 0 instructions: 50000002 cycles: 114898380 cummulative IPC: 0.435167 (Simulation time: 3 hr 34 min 28 sec) 

ChampSim completed all CPUs

Region of Interest Statistics

CPU 0 cummulative IPC: 0.435167 instructions: 50000002 cycles: 114898380
LLC TOTAL     ACCESS:    1860235  HIT:     667829  MISS:    1192406
LLC LOAD      ACCESS:    1091617  HIT:     167124  MISS:     924493
LLC RFO       ACCESS:     126461  HIT:     114223  MISS:      12238
LLC PREFETCH  ACCESS:          0  HIT:          0  MISS:          0
LLC WRITEBACK ACCESS:     642157  HIT:     386482  MISS:     255675
Heartbeat CPU 0 instructions: 50000001 cycles: 123539748 heartbeat IPC: 0.267701 cumulative IPC: 0.370736 (Simulation time: 3 hr 34 min 31 sec) 
Heartbeat CPU 0 instructions: 43000002 cycles: 208543253 heartbeat IPC: 0.268554 cumulative IPC: 0.184599 (Simulation time: 3 hr 34 min 36 sec) 
Heartbeat CPU 0 instructions: 48000000 cycles: 142728382 heartbeat IPC: 0.307372 cumulative IPC: 0.3081 (Simulation time: 3 hr 34 min 37 sec) 
Heartbeat CPU 0 instructions: 49000003 cycles: 515013102 heartbeat IPC: 0.0913607 cumulative IPC: 0.0858477 (Simulation time: 3 hr 34 min 38 sec) 
Heartbeat CPU 0 instructions: 54000000 cycles: 419487019 heartbeat IPC: 0.123637 cumulative IPC: 0.117736 (Simulation time: 3 hr 34 min 40 sec) 
Heartbeat CPU 0 instructions: 44000000 cycles: 344861250 heartbeat IPC: 0.0761617 cumulative IPC: 0.113907 (Simulation time: 3 hr 34 min 43 sec) 
Heartbeat CPU 0 instructions: 42000000 cycles: 94755971 heartbeat IPC: 0.503431 cumulative IPC: 0.40309 (Simulation time: 3 hr 34 min 54 sec) 
Heartbeat CPU 0 instructions: 49000000 cycles: 537531705 heartbeat IPC: 0.0824813 cumulative IPC: 0.0822378 (Simulation time: 3 hr 34 min 58 sec) 
Heartbeat CPU 0 instructions: 44000000 cycles: 212266961 heartbeat IPC: 0.268549 cumulative IPC: 0.18609 (Simulation time: 3 hr 35 min 0 sec) 
Heartbeat CPU 0 instructions: 55000001 cycles: 427924199 heartbeat IPC: 0.118523 cumulative IPC: 0.117752 (Simulation time: 3 hr 35 min 3 sec) 
Finished CPU 0 instructions: 50000000 cycles: 424621753 cummulative IPC: 0.117752 (Simulation time: 3 hr 35 min 3 sec) 

ChampSim completed all CPUs

Region of Interest Statistics

CPU 0 cummulative IPC: 0.117752 instructions: 50000000 cycles: 424621753
LLC TOTAL     ACCESS:    4073915  HIT:    1808562  MISS:    2265353
LLC LOAD      ACCESS:    1208958  HIT:     126709  MISS:    1082249
LLC RFO       ACCESS:    1207737  HIT:     253938  MISS:     953799
LLC PREFETCH  ACCESS:          0  HIT:          0  MISS:          0
LLC WRITEBACK ACCESS:    1657220  HIT:    1427915  MISS:     229305
Heartbeat CPU 0 instructions: 49000001 cycles: 145936622 heartbeat IPC: 0.311698 cumulative IPC: 0.308181 (Simulation time: 3 hr 35 min 3 sec) 
Heartbeat CPU 0 instructions: 51000000 cycles: 127271802 heartbeat IPC: 0.267949 cumulative IPC: 0.36767 (Simulation time: 3 hr 35 min 5 sec) 
Heartbeat CPU 0 instructions: 50000000 cycles: 527817547 heartbeat IPC: 0.0780976 cumulative IPC: 0.0856588 (Simulation time: 3 hr 35 min 12 sec) 
Heartbeat CPU 0 instructions: 45000001 cycles: 352613405 heartbeat IPC: 0.128997 cumulative IPC: 0.114241 (Simulation time: 3 hr 35 min 15 sec) 
Heartbeat CPU 0 instructions: 45000001 cycles: 215963738 heartbeat IPC: 0.270506 cumulative IPC: 0.187553 (Simulation time: 3 hr 35 min 21 sec) 
Heartbeat CPU 0 instructions: 43000000 cycles: 96698190 heartbeat IPC: 0.514875 cumulative IPC: 0.405406 (Simulation time: 3 hr 35 min 26 sec) 
Heartbeat CPU 0 instructions: 50000002 cycles: 549625809 heartbeat IPC: 0.0826851 cumulative IPC: 0.0822477 (Simulation time: 3 hr 35 min 26 sec) 
Heartbeat CPU 0 instructions: 50000001 cycles: 149178430 heartbeat IPC: 0.30847 cumulative IPC: 0.308187 (Simulation time: 3 hr 35 min 27 sec) 
Heartbeat CPU 0 instructions: 52000000 cycles: 131005680 heartbeat IPC: 0.267818 cumulative IPC: 0.364776 (Simulation time: 3 hr 35 min 34 sec) 
Heartbeat CPU 0 instructions: 51000000 cycles: 535253817 heartbeat IPC: 0.134476 cumulative IPC: 0.0863402 (Simulation time: 3 hr 35 min 36 sec) 
Heartbeat CPU 0 instructions: 46000001 cycles: 357590125 heartbeat IPC: 0.200936 cumulative IPC: 0.115456 (Simulation time: 3 hr 35 min 38 sec) 
Heartbeat CPU 0 instructions: 46000001 cycles: 219634314 heartbeat IPC: 0.272437 cumulative IPC: 0.18899 (Simulation time: 3 hr 35 min 39 sec) 
Heartbeat CPU 0 instructions: 51000000 cycles: 152381547 heartbeat IPC: 0.312196 cumulative IPC: 0.308273 (Simulation time: 3 hr 35 min 51 sec) 
Heartbeat CPU 0 instructions: 51000002 cycles: 561692981 heartbeat IPC: 0.0828695 cumulative IPC: 0.0822611 (Simulation time: 3 hr 35 min 54 sec) 
Heartbeat CPU 0 instructions: 47000001 cycles: 223309027 heartbeat IPC: 0.27213 cumulative IPC: 0.190374 (Simulation time: 3 hr 35 min 58 sec) 
Heartbeat CPU 0 instructions: 44000000 cycles: 98728525 heartbeat IPC: 0.49253 cumulative IPC: 0.407253 (Simulation time: 3 hr 36 min 0 sec) 
Heartbeat CPU 0 instructions: 52000000 cycles: 545559621 heartbeat IPC: 0.0970327 cumulative IPC: 0.0865431 (Simulation time: 3 hr 36 min 2 sec) 
Heartbeat CPU 0 instructions: 53000000 cycles: 134814835 heartbeat IPC: 0.262525 cumulative IPC: 0.36184 (Simulation time: 3 hr 36 min 4 sec) 
Heartbeat CPU 0 instructions: 47000002 cycles: 367181862 heartbeat IPC: 0.104257 cumulative IPC: 0.115162 (Simulation time: 3 hr 36 min 8 sec) 
Heartbeat CPU 0 instructions: 52000000 cycles: 155595770 heartbeat IPC: 0.311117 cumulative IPC: 0.308333 (Simulation time: 3 hr 36 min 12 sec) 
Heartbeat CPU 0 instructions: 48000000 cycles: 226964994 heartbeat IPC: 0.273525 cumulative IPC: 0.19173 (Simulation time: 3 hr 36 min 16 sec) 
Heartbeat CPU 0 instructions: 52000000 cycles: 573677754 heartbeat IPC: 0.083439 cumulative IPC: 0.0822858 (Simulation time: 3 hr 36 min 21 sec) 
Heartbeat CPU 0 instructions: 54000001 cycles: 137302971 heartbeat IPC: 0.401908 cumulative IPC: 0.362578 (Simulation time: 3 hr 36 min 29 sec) 
Heartbeat CPU 0 instructions: 45000003 cycles: 100751252 heartbeat IPC: 0.494384 cumulative IPC: 0.409055 (Simulation time: 3 hr 36 min 31 sec) 
Heartbeat CPU 0 instructions: 53000000 cycles: 158879011 heartbeat IPC: 0.304577 cumulative IPC: 0.308254 (Simulation time: 3 hr 36 min 32 sec) 
Heartbeat CPU 0 instructions: 53000000 cycles: 559228126 heartbeat IPC: 0.0731609 cumulative IPC: 0.0862145 (Simulation time: 3 hr 36 min 32 sec) 
Heartbeat CPU 0 instructions: 49000000 cycles: 230646692 heartbeat IPC: 0.271614 cumulative IPC: 0.19302 (Simulation time: 3 hr 36 min 34 sec) 
Heartbeat CPU 0 instructions: 48000000 cycles: 378672185 heartbeat IPC: 0.0870296 cumulative IPC: 0.114303 (Simulation time: 3 hr 36 min 37 sec) 
Heartbeat CPU 0 instructions: 53000000 cycles: 585801617 heartbeat IPC: 0.082482 cumulative IPC: 0.0822899 (Simulation time: 3 hr 36 min 46 sec) 
Heartbeat CPU 0 instructions: 50000003 cycles: 234322609 heartbeat IPC: 0.272042 cumulative IPC: 0.194274 (Simulation time: 3 hr 36 min 51 sec) 
Heartbeat CPU 0 instructions: 55000002 cycles: 139642737 heartbeat IPC: 0.427394 cumulative IPC: 0.363681 (Simulation time: 3 hr 36 min 51 sec) 
Finished CPU 0 instructions: 50000001 cycles: 137483221 cummulative IPC: 0.363681 (Simulation time: 3 hr 36 min 51 sec) 

ChampSim completed all CPUs

Region of Interest Statistics

CPU 0 cummulative IPC: 0.363681 instructions: 50000001 cycles: 137483221
LLC TOTAL     ACCESS:    1605490  HIT:     755072  MISS:     850418
LLC LOAD      ACCESS:    1396254  HIT:     556073  MISS:     840181
LLC RFO       ACCESS:      12669  HIT:       2798  MISS:       9871
LLC PREFETCH  ACCESS:          0  HIT:          0  MISS:          0
LLC WRITEBACK ACCESS:     196567  HIT:     196201  MISS:        366
Heartbeat CPU 0 instructions: 54000000 cycles: 162064892 heartbeat IPC: 0.313885 cumulative IPC: 0.308367 (Simulation time: 3 hr 36 min 51 sec) 
Heartbeat CPU 0 instructions: 54000000 cycles: 566918555 heartbeat IPC: 0.130032 cumulative IPC: 0.0868115 (Simulation time: 3 hr 36 min 52 sec) 
Heartbeat CPU 0 instructions: 46000002 cycles: 102745535 heartbeat IPC: 0.501433 cumulative IPC: 0.410902 (Simulation time: 3 hr 36 min 54 sec) 
Heartbeat CPU 0 instructions: 49000000 cycles: 383918835 heartbeat IPC: 0.190598 cumulative IPC: 0.115352 (Simulation time: 3 hr 36 min 58 sec) 
Heartbeat CPU 0 instructions: 51000001 cycles: 238000475 heartbeat IPC: 0.271896 cumulative IPC: 0.195487 (Simulation time: 3 hr 37 min 8 sec) 
Heartbeat CPU 0 instructions: 54000000 cycles: 597783994 heartbeat IPC: 0.0834559 cumulative IPC: 0.0823134 (Simulation time: 3 hr 37 min 8 sec) 
Heartbeat CPU 0 instructions: 55000003 cycles: 165243557 heartbeat IPC: 0.314598 cumulative IPC: 0.308489 (Simulation time: 3 hr 37 min 8 sec) 
Finished CPU 0 instructions: 50000000 cycles: 162080202 cummulative IPC: 0.308489 (Simulation time: 3 hr 37 min 8 sec) 

ChampSim completed all CPUs

Region of Interest Statistics

CPU 0 cummulative IPC: 0.308489 instructions: 50000000 cycles: 162080202
LLC TOTAL     ACCESS:    2633440  HIT:     280582  MISS:    2352858
LLC LOAD      ACCESS:    1915756  HIT:     264667  MISS:    1651089
LLC RFO       ACCESS:          0  HIT:          0  MISS:          0
LLC PREFETCH  ACCESS:          0  HIT:          0  MISS:          0
LLC WRITEBACK ACCESS:     717684  HIT:      15915  MISS:     701769
Heartbeat CPU 0 instructions: 55000000 cycles: 576000709 heartbeat IPC: 0.110106 cumulative IPC: 0.0871804 (Simulation time: 3 hr 37 min 11 sec) 
Finished CPU 0 instructions: 50000003 cycles: 573523334 cummulative IPC: 0.0871804 (Simulation time: 3 hr 37 min 11 sec) 

ChampSim completed all CPUs

Region of Interest Statistics

CPU 0 cummulative IPC: 0.0871804 instructions: 50000003 cycles: 573523334
LLC TOTAL     ACCESS:    6474126  HIT:    3228021  MISS:    3246105
LLC LOAD      ACCESS:    5697297  HIT:    2711165  MISS:    2986132
LLC RFO       ACCESS:      65867  HIT:      39976  MISS:      25891
LLC PREFETCH  ACCESS:          0  HIT:          0  MISS:          0
LLC WRITEBACK ACCESS:     710962  HIT:     476880  MISS:     234082
Heartbeat CPU 0 instructions: 47000002 cycles: 107479560 heartbeat IPC: 0.211237 cumulative IPC: 0.401858 (Simulation time: 3 hr 37 min 15 sec) 
Heartbeat CPU 0 instructions: 50000001 cycles: 390766132 heartbeat IPC: 0.146043 cumulative IPC: 0.115893 (Simulation time: 3 hr 37 min 15 sec) 
Heartbeat CPU 0 instructions: 52000000 cycles: 241650726 heartbeat IPC: 0.273953 cumulative IPC: 0.196686 (Simulation time: 3 hr 37 min 19 sec) 
Heartbeat CPU 0 instructions: 55000000 cycles: 609816725 heartbeat IPC: 0.0831067 cumulative IPC: 0.0823291 (Simulation time: 3 hr 37 min 21 sec) 
Finished CPU 0 instructions: 50000000 cycles: 607318641 cummulative IPC: 0.0823291 (Simulation time: 3 hr 37 min 21 sec) 

ChampSim completed all CPUs

Region of Interest Statistics

CPU 0 cummulative IPC: 0.0823291 instructions: 50000000 cycles: 607318641
LLC TOTAL     ACCESS:    7409446  HIT:    3958382  MISS:    3451064
LLC LOAD      ACCESS:    7242671  HIT:    3840397  MISS:    3402274
LLC RFO       ACCESS:      12949  HIT:       8221  MISS:       4728
LLC PREFETCH  ACCESS:          0  HIT:          0  MISS:          0
LLC WRITEBACK ACCESS:     153826  HIT:     109764  MISS:      44062
Heartbeat CPU 0 instructions: 48000000 cycles: 111745221 heartbeat IPC: 0.23443 cumulative IPC: 0.395292 (Simulation time: 3 hr 37 min 27 sec) 
Heartbeat CPU 0 instructions: 53000001 cycles: 245319030 heartbeat IPC: 0.272606 cumulative IPC: 0.197834 (Simulation time: 3 hr 37 min 28 sec) 
Heartbeat CPU 0 instructions: 51000001 cycles: 404899322 heartbeat IPC: 0.0707554 cumulative IPC: 0.114308 (Simulation time: 3 hr 37 min 32 sec) 
Heartbeat CPU 0 instructions: 49000000 cycles: 113711810 heartbeat IPC: 0.508495 cumulative IPC: 0.397303 (Simulation time: 3 hr 37 min 37 sec) 
Heartbeat CPU 0 instructions: 54000000 cycles: 248977812 heartbeat IPC: 0.273315 cumulative IPC: 0.198955 (Simulation time: 3 hr 37 min 38 sec) 
Heartbeat CPU 0 instructions: 52000000 cycles: 410046832 heartbeat IPC: 0.194268 cumulative IPC: 0.115318 (Simulation time: 3 hr 37 min 43 sec) 
Heartbeat CPU 0 instructions: 50000000 cycles: 115690597 heartbeat IPC: 0.50536 cumulative IPC: 0.399199 (Simulation time: 3 hr 37 min 46 sec) 
Heartbeat CPU 0 instructions: 55000000 cycles: 252652794 heartbeat IPC: 0.27211 cumulative IPC: 0.200031 (Simulation time: 3 hr 37 min 47 sec) 
Finished CPU 0 instructions: 50000000 cycles: 249961617 cummulative IPC: 0.200031 (Simulation time: 3 hr 37 min 47 sec) 

ChampSim completed all CPUs

Region of Interest Statistics

CPU 0 cummulative IPC: 0.200031 instructions: 50000000 cycles: 249961617
LLC TOTAL     ACCESS:    2080993  HIT:     393526  MISS:    1687467
LLC LOAD      ACCESS:    1000826  HIT:      77136  MISS:     923690
LLC RFO       ACCESS:     447913  HIT:      25646  MISS:     422267
LLC PREFETCH  ACCESS:          0  HIT:          0  MISS:          0
LLC WRITEBACK ACCESS:     632254  HIT:     290744  MISS:     341510
Heartbeat CPU 0 instructions: 53000000 cycles: 415010131 heartbeat IPC: 0.201479 cumulative IPC: 0.116355 (Simulation time: 3 hr 37 min 52 sec) 
Heartbeat CPU 0 instructions: 51000001 cycles: 117628135 heartbeat IPC: 0.516119 cumulative IPC: 0.401175 (Simulation time: 3 hr 37 min 54 sec) 
Heartbeat CPU 0 instructions: 52000000 cycles: 119579032 heartbeat IPC: 0.512584 cumulative IPC: 0.403039 (Simulation time: 3 hr 38 min 2 sec) 
Heartbeat CPU 0 instructions: 54000002 cycles: 430206328 heartbeat IPC: 0.0658061 cumulative IPC: 0.114559 (Simulation time: 3 hr 38 min 7 sec) 
Heartbeat CPU 0 instructions: 53000003 cycles: 121617494 heartbeat IPC: 0.490567 cumulative IPC: 0.404543 (Simulation time: 3 hr 38 min 9 sec) 
Heartbeat CPU 0 instructions: 55000002 cycles: 435783050 heartbeat IPC: 0.179317 cumulative IPC: 0.115392 (Simulation time: 3 hr 38 min 15 sec) 
Finished CPU 0 instructions: 50000001 cycles: 433305271 cummulative IPC: 0.115392 (Simulation time: 3 hr 38 min 15 sec) 

ChampSim completed all CPUs

Region of Interest Statistics

CPU 0 cummulative IPC: 0.115392 instructions: 50000001 cycles: 433305271
LLC TOTAL     ACCESS:    5613634  HIT:    2546557  MISS:    3067077
LLC LOAD      ACCESS:    4493044  HIT:    1817282  MISS:    2675762
LLC RFO       ACCESS:      98825  HIT:      64286  MISS:      34539
LLC PREFETCH  ACCESS:          0  HIT:          0  MISS:          0
LLC WRITEBACK ACCESS:    1021765  HIT:     664989  MISS:     356776
Heartbeat CPU 0 instructions: 54000001 cycles: 123631785 heartbeat IPC: 0.496452 cumulative IPC: 0.406077 (Simulation time: 3 hr 38 min 17 sec) 
Heartbeat CPU 0 instructions: 55000000 cycles: 125656866 heartbeat IPC: 0.493807 cumulative IPC: 0.407525 (Simulation time: 3 hr 38 min 22 sec) 
Finished CPU 0 instructions: 50000000 cycles: 122691875 cummulative IPC: 0.407525 (Simulation time: 3 hr 38 min 22 sec) 

ChampSim completed all CPUs

Region of Interest Statistics

CPU 0 cummulative IPC: 0.407525 instructions: 50000000 cycles: 122691875
LLC TOTAL     ACCESS:     585983  HIT:     133696  MISS:     452287
LLC LOAD      ACCESS:     317739  HIT:      38002  MISS:     279737
LLC RFO       ACCESS:     134054  HIT:      12071  MISS:     121983
LLC PREFETCH  ACCESS:          0  HIT:          0  MISS:          0
LLC WRITEBACK ACCESS:     134190  HIT:      83623  MISS:      50567
