
*** ChampSim Multicore Out-of-Order Simulator ***

Warmup Instructions: 5000000
Simulation Instructions: 50000000
Configuration: 1
Number of CPUs: 1
LLC sets: 2048
LLC ways: 16
Off-chip DRAM Channels: 1 Width: 64-bit Data Rate: 1600 MT/s






*** ChampSim Multicore Out-of-Order Simulator ***



*** ChampSim Multicore Out-of-Order Simulator ***

*** ChampSim Multicore Out-of-Order Simulator ***

Warmup Instructions: 5000000
Simulation Instructions: 50000000
Warmup Instructions: 5000000
Configuration: 1
Simulation Instructions: 50000000
Configuration: 1
*** ChampSim Multicore Out-of-Order Simulator ***



*** ChampSim Multicore Out-of-Order Simulator ***

*** ChampSim Multicore Out-of-Order Simulator ***
Warmup Instructions: 5000000
Simulation Instructions: 50000000

*** ChampSim Multicore Out-of-Order Simulator ***
Configuration: 1

Number of CPUs: 1
LLC sets: 2048
LLC ways: 16
Warmup Instructions: 5000000
Off-chip DRAM Channels: 1 Width: 64-bit Data Rate: 1600 MT/s

Simulation Instructions: 50000000
Warmup Instructions: 5000000
Simulation Instructions: 50000000
Configuration: 1
Configuration: 1
Number of CPUs: 1
Number of CPUs: 1
LLC sets: 2048
LLC sets: 2048
LLC ways: 16
LLC ways: 16

Off-chip DRAM Channels: 1 Width: 64-bit Data Rate: 1600 MT/s

Off-chip DRAM Channels: 1 Width: 64-bit Data Rate: 1600 MT/s

*** ChampSim Multicore Out-of-Order Simulator ***


*** ChampSim Multicore Out-of-Order Simulator ***

Warmup Instructions: 5000000
Simulation Instructions: 50000000
Configuration: 1
Number of CPUs: 1
LLC sets: 2048
LLC ways: 16
Off-chip DRAM Channels: 1 Width: 64-bit Data Rate: 1600 MT/s


*** ChampSim Multicore Out-of-Order Simulator ***

Warmup Instructions: 5000000
Simulation Instructions: 50000000
Configuration: 1
Number of CPUs: 1
LLC sets: 2048
LLC ways: 16
Off-chip DRAM Channels: 1 Width: 64-bit Data Rate: 1600 MT/s

*** ChampSim Multicore Out-of-Order Simulator ***


Warmup Instructions: 5000000
Simulation Instructions: 50000000
Configuration: 1
Number of CPUs: 1
LLC sets: 2048
*** ChampSim Multicore Out-of-Order Simulator ***
LLC ways: 16
Off-chip DRAM Channels: 1 Width: 64-bit Data Rate: 1600 MT/s


Warmup Instructions: 5000000
Simulation Instructions: 50000000
Configuration: 1
Number of CPUs: 1
LLC sets: 2048
LLC ways: 16
Off-chip DRAM Channels: 1 Width: 64-bit Data Rate: 1600 MT/s



*** ChampSim Multicore Out-of-Order Simulator ***

*** ChampSim Multicore Out-of-Order Simulator ***
Warmup Instructions: 5000000
Simulation Instructions: 50000000
Configuration: 1
Number of CPUs: 1
LLC sets: 2048
LLC ways: 16
Off-chip DRAM Channels: 1 Width: 64-bit Data Rate: 1600 MT/s


Warmup Instructions: 5000000
Simulation Instructions: 50000000
Configuration: 1
*** ChampSim Multicore Out-of-Order Simulator ***

Warmup Instructions: 5000000
Warmup Instructions: 5000000
Simulation Instructions: 50000000
Configuration: 1
Number of CPUs: 1
LLC sets: 2048
Simulation Instructions: 50000000
LLC ways: 16

Configuration: 1
Off-chip DRAM Channels: 1 Width: 64-bit Data Rate: 1600 MT/s

Number of CPUs: 1
LLC sets: 2048
LLC ways: 16
Number of CPUs: 1
LLC sets: 2048
LLC ways: 16
Off-chip DRAM Channels: 1 Width: 64-bit Data Rate: 1600 MT/s


*** ChampSim Multicore Out-of-Order Simulator ***

Warmup Instructions: 5000000
Simulation Instructions: 50000000
Configuration: 1
Number of CPUs: 1
LLC sets: 2048
LLC ways: 16
Off-chip DRAM Channels: 1 Width: 64-bit Data Rate: 1600 MT/s


*** ChampSim Multicore Out-of-Order Simulator ***

Warmup Instructions: 5000000
Simulation Instructions: 50000000
Configuration: 1
Number of CPUs: 1
LLC sets: 2048
LLC ways: 16
Off-chip DRAM Channels: 1 Width: 64-bit Data Rate: 1600 MT/s


Number of CPUs: 1
*** ChampSim Multicore Out-of-Order Simulator ***

Warmup Instructions: 5000000
Simulation Instructions: 50000000
Configuration: 1
Number of CPUs: 1
LLC sets: 2048
LLC ways: 16
Off-chip DRAM Channels: 1 Width: 64-bit Data Rate: 1600 MT/s


*** ChampSim Multicore Out-of-Order Simulator ***

Warmup Instructions: 5000000
Simulation Instructions: 50000000
Configuration: 1
Number of CPUs: 1
LLC sets: 2048
LLC ways: 16
Off-chip DRAM Channels: 1 Width: 64-bit Data Rate: 1600 MT/s


*** ChampSim Multicore Out-of-Order Simulator ***

Warmup Instructions: 5000000
Simulation Instructions: 50000000
Configuration: 1
Number of CPUs: 1
LLC sets: 2048
LLC ways: 16
Off-chip DRAM Channels: 1 Width: 64-bit Data Rate: 1600 MT/s


*** ChampSim Multicore Out-of-Order Simulator ***

Warmup Instructions: 5000000
Simulation Instructions: 50000000
Configuration: 1
Number of CPUs: 1
LLC sets: 2048
LLC ways: 16
Off-chip DRAM Channels: 1 Width: 64-bit Data Rate: 1600 MT/s

Warmup Instructions: 5000000
Simulation Instructions: 50000000
Configuration: 1
Number of CPUs: 1
LLC sets: 2048
LLC ways: 16
Off-chip DRAM Channels: 1 Width: 64-bit Data Rate: 1600 MT/s


*** ChampSim Multicore Out-of-Order Simulator ***

Warmup Instructions: 5000000
Simulation Instructions: 50000000
Configuration: 1
Number of CPUs: 1
LLC sets: 2048
LLC ways: 16
Off-chip DRAM Channels: 1 Width: 64-bit Data Rate: 1600 MT/s


*** ChampSim Multicore Out-of-Order Simulator ***

Warmup Instructions: 5000000
Simulation Instructions: 50000000
Configuration: 1
Number of CPUs: 1
LLC sets: 2048
LLC ways: 16
Off-chip DRAM Channels: 1 Width: 64-bit Data Rate: 1600 MT/s


*** ChampSim Multicore Out-of-Order Simulator ***

Warmup Instructions: 5000000
Simulation Instructions: 50000000
Configuration: 1
Number of CPUs: 1
Number of CPUs: 1
LLC sets: 2048
LLC ways: 16
LLC sets: 2048

*** ChampSim Multicore Out-of-Order Simulator ***

Warmup Instructions: 5000000
Simulation Instructions: 50000000
Configuration: 1
Number of CPUs: 1
LLC sets: 2048
LLC ways: 16
Off-chip DRAM Channels: 1 Width: 64-bit Data Rate: 1600 MT/s


*** ChampSim Multicore Out-of-Order Simulator ***

Warmup Instructions: 5000000
Simulation Instructions: 50000000
Configuration: 1
Number of CPUs: 1
LLC sets: 2048
LLC ways: 16
Off-chip DRAM Channels: 1 Width: 64-bit Data Rate: 1600 MT/s


*** ChampSim Multicore Out-of-Order Simulator ***

Warmup Instructions: 5000000
Simulation Instructions: 50000000
Configuration: 1
Number of CPUs: 1
LLC sets: 2048
LLC ways: 16
Off-chip DRAM Channels: 1 Width: 64-bit Data Rate: 1600 MT/s


*** ChampSim Multicore Out-of-Order Simulator ***

Warmup Instructions: 5000000
Simulation Instructions: 50000000
Configuration: 1
Number of CPUs: 1
LLC sets: 2048
LLC ways: 16
Off-chip DRAM Channels: 1 Width: 64-bit Data Rate: 1600 MT/s

*** ChampSim Multicore Out-of-Order Simulator ***

Warmup Instructions: 5000000
Simulation Instructions: 50000000
Configuration: 1
Number of CPUs: 1
LLC sets: 2048
LLC ways: 16
Off-chip DRAM Channels: 1 Width: 64-bit Data Rate: 1600 MT/s

Off-chip DRAM Channels: 1 Width: 64-bit Data Rate: 1600 MT/s


*** ChampSim Multicore Out-of-Order Simulator ***

Warmup Instructions: 5000000
Simulation Instructions: 50000000
Configuration: 1
Number of CPUs: 1
LLC sets: 2048
LLC ways: 16

LLC sets: 2048
LLC ways: 16
Warmup Instructions: 5000000

*** ChampSim Multicore Out-of-Order Simulator ***

LLC ways: 16
Warmup Instructions: 5000000
Simulation Instructions: 50000000
Off-chip DRAM Channels: 1 Width: 64-bit Data Rate: 1600 MT/s

Configuration: 1
Number of CPUs: 1
LLC sets: 2048
LLC ways: 16

*** ChampSim Multicore Out-of-Order Simulator ***

Warmup Instructions: 5000000
Simulation Instructions: 50000000
Configuration: 1
Number of CPUs: 1
LLC sets: 2048
LLC ways: 16
Off-chip DRAM Channels: 1 Width: 64-bit Data Rate: 1600 MT/s

Off-chip DRAM Channels: 1 Width: 64-bit Data Rate: 1600 MT/s

*** ChampSim Multicore Out-of-Order Simulator ***

Warmup Instructions: 5000000
Simulation Instructions: 50000000
Configuration: 1
Number of CPUs: 1
LLC sets: 2048
LLC ways: 16

Off-chip DRAM Channels: 1 Width: 64-bit Data Rate: 1600 MT/s

Off-chip DRAM Channels: 1 Width: 64-bit Data Rate: 1600 MT/s

Simulation Instructions: 50000000
Off-chip DRAM Channels: 1 Width: 64-bit Data Rate: 1600 MT/s

Off-chip DRAM Channels: 1 Width: 64-bit Data Rate: 1600 MT/s



*** ChampSim Multicore Out-of-Order Simulator ***


*** ChampSim Multicore Out-of-Order Simulator ***

*** ChampSim Multicore Out-of-Order Simulator ***
Warmup Instructions: 5000000

Simulation Instructions: 50000000
Warmup Instructions: 5000000
Configuration: 1
Simulation Instructions: 50000000
Number of CPUs: 1
Warmup Instructions: 5000000
LLC sets: 2048
Configuration: 1
Simulation Instructions: 50000000
LLC ways: 16
Number of CPUs: 1
LLC sets: 2048
LLC ways: 16
Configuration: 1
Off-chip DRAM Channels: 1 Width: 64-bit Data Rate: 1600 MT/s

Number of CPUs: 1
LLC sets: 2048
LLC ways: 16
Off-chip DRAM Channels: 1 Width: 64-bit Data Rate: 1600 MT/s

Off-chip DRAM Channels: 1 Width: 64-bit Data Rate: 1600 MT/s


*** ChampSim Multicore Out-of-Order Simulator ***

Warmup Instructions: 5000000
Simulation Instructions: 50000000
Configuration: 1

Number of CPUs: 1
LLC sets: 2048
LLC ways: 16
*** ChampSim Multicore Out-of-Order Simulator ***

Off-chip DRAM Channels: 1 Width: 64-bit Data Rate: 1600 MT/s

Warmup Instructions: 5000000
Simulation Instructions: 50000000
Configuration: 1
Number of CPUs: 1
LLC sets: 2048
LLC ways: 16
Off-chip DRAM Channels: 1 Width: 64-bit Data Rate: 1600 MT/s


*** ChampSim Multicore Out-of-Order Simulator ***

Warmup Instructions: 5000000
Simulation Instructions: 50000000
Configuration: 1
Number of CPUs: 1
LLC sets: 2048
LLC ways: 16
Off-chip DRAM Channels: 1 Width: 64-bit Data Rate: 1600 MT/s


*** ChampSim Multicore Out-of-Order Simulator ***

Warmup Instructions: 5000000
Simulation Instructions: 50000000
Configuration: 1
Number of CPUs: 1
LLC sets: 2048
LLC ways: 16
Off-chip DRAM Channels: 1 Width: 64-bit Data Rate: 1600 MT/s



*** ChampSim Multicore Out-of-Order Simulator ***

*** ChampSim Multicore Out-of-Order Simulator ***

Warmup Instructions: 5000000
Simulation Instructions: 50000000
Configuration: 1
Warmup Instructions: 5000000
Number of CPUs: 1
Simulation Instructions: 50000000
LLC sets: 2048
Configuration: 1
LLC ways: 16
Number of CPUs: 1
LLC sets: 2048
LLC ways: 16
Off-chip DRAM Channels: 1 Width: 64-bit Data Rate: 1600 MT/s

*** ChampSim Multicore Out-of-Order Simulator ***
Off-chip DRAM Channels: 1 Width: 64-bit Data Rate: 1600 MT/s


Warmup Instructions: 5000000
Simulation Instructions: 50000000
Configuration: 1
Number of CPUs: 1
LLC sets: 2048
LLC ways: 16
Off-chip DRAM Channels: 1 Width: 64-bit Data Rate: 1600 MT/s

Configuration: 1
Number of CPUs: 1
LLC sets: 2048
LLC ways: 16
Off-chip DRAM Channels: 1 Width: 64-bit Data Rate: 1600 MT/s


*** ChampSim Multicore Out-of-Order Simulator ***

Warmup Instructions: 5000000
Simulation Instructions: 50000000
Configuration: 1
Number of CPUs: 1
LLC sets: 2048
LLC ways: 16
Off-chip DRAM Channels: 1 Width: 64-bit Data Rate: 1600 MT/s



*** ChampSim Multicore Out-of-Order Simulator ***

*** ChampSim Multicore Out-of-Order Simulator ***
Warmup Instructions: 5000000

Simulation Instructions: 50000000
Configuration: 1
Number of CPUs: 1
LLC sets: 2048
LLC ways: 16
Off-chip DRAM Channels: 1 Width: 64-bit Data Rate: 1600 MT/s

Warmup Instructions: 5000000
Simulation Instructions: 50000000
Configuration: 1
Number of CPUs: 1
LLC sets: 2048
LLC ways: 16
Off-chip DRAM Channels: 1 Width: 64-bit Data Rate: 1600 MT/s


*** ChampSim Multicore Out-of-Order Simulator ***

Warmup Instructions: 5000000
Simulation Instructions: 50000000

Configuration: 1
Number of CPUs: 1
LLC sets: 2048
*** ChampSim Multicore Out-of-Order Simulator ***
LLC ways: 16

Warmup Instructions: 5000000
Simulation Instructions: 50000000
Off-chip DRAM Channels: 1 Width: 64-bit Data Rate: 1600 MT/s

Configuration: 1
Number of CPUs: 1
LLC sets: 2048
LLC ways: 16
Off-chip DRAM Channels: 1 Width: 64-bit Data Rate: 1600 MT/s


*** ChampSim Multicore Out-of-Order Simulator ***

Warmup Instructions: 5000000
Simulation Instructions: 50000000
Configuration: 1
Number of CPUs: 1
LLC sets: 2048
LLC ways: 16
Off-chip DRAM Channels: 1 Width: 64-bit Data Rate: 1600 MT/s


*** ChampSim Multicore Out-of-Order Simulator ***

Warmup Instructions: 5000000
Simulation Instructions: 50000000
Configuration: 1
Number of CPUs: 1
LLC sets: 2048
LLC ways: 16
Off-chip DRAM Channels: 1 Width: 64-bit Data Rate: 1600 MT/s

CPU 0 runs /datasets/cs240c-wi22-a00-public/data/Assignment2-gz/libquantum_1735B.trace.gz
Heartbeat CPU 0 instructions: 1000003 cycles: 333345 heartbeat IPC: 2.9999 cumulative IPC: 2.9999 (Simulation time: 0 hr 2 min 19 sec) 
CPU 0 runs /datasets/cs240c-wi22-a00-public/data/Assignment2-gz/libquantum_964B.trace.gz
Heartbeat CPU 0 instructions: 1000001 cycles: 333344 heartbeat IPC: 2.99991 cumulative IPC: 2.99991 (Simulation time: 0 hr 2 min 19 sec) 
CPU 0 runs /datasets/cs240c-wi22-a00-public/data/Assignment2-gz/libquantum_1210B.trace.gz
Heartbeat CPU 0 instructions: 1000003 cycles: 314916 heartbeat IPC: 3.17546 cumulative IPC: 3.17546 (Simulation time: 0 hr 2 min 22 sec) 
CPU 0 runs /datasets/cs240c-wi22-a00-public/data/Assignment2-gz/calculix_2655B.trace.gz
Heartbeat CPU 0 instructions: 1000003 cycles: 371402 heartbeat IPC: 2.69251 cumulative IPC: 2.69251 (Simulation time: 0 hr 2 min 40 sec) 
CPU 0 runs /datasets/cs240c-wi22-a00-public/data/Assignment2-gz/calculix_2670B.trace.gz
Heartbeat CPU 0 instructions: 1000003 cycles: 520140 heartbeat IPC: 1.92257 cumulative IPC: 1.92257 (Simulation time: 0 hr 3 min 1 sec) 
CPU 0 runs /datasets/cs240c-wi22-a00-public/data/Assignment2-gz/zeusmp_600B.trace.gz
Heartbeat CPU 0 instructions: 1000000 cycles: 407507 heartbeat IPC: 2.45395 cumulative IPC: 2.45395 (Simulation time: 0 hr 3 min 1 sec) 
CPU 0 runs /datasets/cs240c-wi22-a00-public/data/Assignment2-gz/sphinx3_2520B.trace.gz
Heartbeat CPU 0 instructions: 1000003 cycles: 338265 heartbeat IPC: 2.95627 cumulative IPC: 2.95627 (Simulation time: 0 hr 3 min 5 sec) 
CPU 0 runs /datasets/cs240c-wi22-a00-public/data/Assignment2-gz/omnetpp_4B.trace.gz
Heartbeat CPU 0 instructions: 1000001 cycles: 566835 heartbeat IPC: 1.76418 cumulative IPC: 1.76418 (Simulation time: 0 hr 3 min 7 sec) 
CPU 0 runs /datasets/cs240c-wi22-a00-public/data/Assignment2-gz/soplex_66B.trace.gz
Heartbeat CPU 0 instructions: 1000003 cycles: 416333 heartbeat IPC: 2.40193 cumulative IPC: 2.40193 (Simulation time: 0 hr 3 min 9 sec) 
CPU 0 runs /datasets/cs240c-wi22-a00-public/data/Assignment2-gz/sphinx3_1339B.trace.gz
Heartbeat CPU 0 instructions: 1000001 cycles: 338437 heartbeat IPC: 2.95476 cumulative IPC: 2.95476 (Simulation time: 0 hr 3 min 9 sec) 
CPU 0 runs /datasets/cs240c-wi22-a00-public/data/Assignment2-gz/zeusmp_300B.trace.gz
Heartbeat CPU 0 instructions: 1000003 cycles: 508391 heartbeat IPC: 1.967 cumulative IPC: 1.967 (Simulation time: 0 hr 3 min 15 sec) 
CPU 0 runs /datasets/cs240c-wi22-a00-public/data/Assignment2-gz/soplex_205B.trace.gz
Heartbeat CPU 0 instructions: 1000000 cycles: 394357 heartbeat IPC: 2.53577 cumulative IPC: 2.53577 (Simulation time: 0 hr 3 min 16 sec) 
CPU 0 runs /datasets/cs240c-wi22-a00-public/data/Assignment2-gz/bzip2_259B.trace.gz
Heartbeat CPU 0 instructions: 1000002 cycles: 428954 heartbeat IPC: 2.33126 cumulative IPC: 2.33126 (Simulation time: 0 hr 3 min 17 sec) 
CPU 0 runs /datasets/cs240c-wi22-a00-public/data/Assignment2-gz/zeusmp_100B.trace.gz
Heartbeat CPU 0 instructions: 1000002 cycles: 464468 heartbeat IPC: 2.15301 cumulative IPC: 2.15301 (Simulation time: 0 hr 3 min 18 sec) 
CPU 0 runs /datasets/cs240c-wi22-a00-public/data/Assignment2-gz/omnetpp_17B.trace.gz
Heartbeat CPU 0 instructions: 1000000 cycles: 559780 heartbeat IPC: 1.78642 cumulative IPC: 1.78642 (Simulation time: 0 hr 3 min 19 sec) 
CPU 0 runs /datasets/cs240c-wi22-a00-public/data/Assignment2-gz/lbm_1004B.trace.gz
Heartbeat CPU 0 instructions: 1000002 cycles: 391495 heartbeat IPC: 2.55432 cumulative IPC: 2.55432 (Simulation time: 0 hr 3 min 23 sec) 
CPU 0 runs /datasets/cs240c-wi22-a00-public/data/Assignment2-gz/sphinx3_883B.trace.gz
Heartbeat CPU 0 instructions: 1000003 cycles: 413061 heartbeat IPC: 2.42096 cumulative IPC: 2.42096 (Simulation time: 0 hr 3 min 25 sec) 
CPU 0 runs /datasets/cs240c-wi22-a00-public/data/Assignment2-gz/astar_23B.trace.gz
Heartbeat CPU 0 instructions: 1000000 cycles: 360103 heartbeat IPC: 2.77698 cumulative IPC: 2.77698 (Simulation time: 0 hr 3 min 27 sec) 
CPU 0 runs /datasets/cs240c-wi22-a00-public/data/Assignment2-gz/lbm_564B.trace.gz
Heartbeat CPU 0 instructions: 1000000 cycles: 390238 heartbeat IPC: 2.56254 cumulative IPC: 2.56254 (Simulation time: 0 hr 3 min 27 sec) 
CPU 0 runs /datasets/cs240c-wi22-a00-public/data/Assignment2-gz/milc_409B.trace.gz
Heartbeat CPU 0 instructions: 1000000 cycles: 402731 heartbeat IPC: 2.48305 cumulative IPC: 2.48305 (Simulation time: 0 hr 3 min 29 sec) 
CPU 0 runs /datasets/cs240c-wi22-a00-public/data/Assignment2-gz/GemsFDTD_716B.trace.gz
Heartbeat CPU 0 instructions: 1000000 cycles: 415494 heartbeat IPC: 2.40677 cumulative IPC: 2.40677 (Simulation time: 0 hr 3 min 30 sec) 
CPU 0 runs /datasets/cs240c-wi22-a00-public/data/Assignment2-gz/bzip2_183B.trace.gz
Heartbeat CPU 0 instructions: 1000000 cycles: 448069 heartbeat IPC: 2.2318 cumulative IPC: 2.2318 (Simulation time: 0 hr 3 min 31 sec) 
CPU 0 runs /datasets/cs240c-wi22-a00-public/data/Assignment2-gz/lbm_94B.trace.gz
Heartbeat CPU 0 instructions: 1000000 cycles: 422411 heartbeat IPC: 2.36736 cumulative IPC: 2.36736 (Simulation time: 0 hr 3 min 33 sec) 
CPU 0 runs /datasets/cs240c-wi22-a00-public/data/Assignment2-gz/milc_744B.trace.gz
Heartbeat CPU 0 instructions: 1000000 cycles: 383399 heartbeat IPC: 2.60825 cumulative IPC: 2.60825 (Simulation time: 0 hr 3 min 34 sec) 
CPU 0 runs /datasets/cs240c-wi22-a00-public/data/Assignment2-gz/bzip2_281B.trace.gz
Heartbeat CPU 0 instructions: 1000000 cycles: 445723 heartbeat IPC: 2.24355 cumulative IPC: 2.24355 (Simulation time: 0 hr 3 min 35 sec) 
CPU 0 runs /datasets/cs240c-wi22-a00-public/data/Assignment2-gz/gcc_39B.trace.gz
Heartbeat CPU 0 instructions: 1000000 cycles: 510392 heartbeat IPC: 1.95928 cumulative IPC: 1.95928 (Simulation time: 0 hr 3 min 44 sec) 
CPU 0 runs /datasets/cs240c-wi22-a00-public/data/Assignment2-gz/astar_163B.trace.gz
Heartbeat CPU 0 instructions: 1000002 cycles: 530774 heartbeat IPC: 1.88404 cumulative IPC: 1.88404 (Simulation time: 0 hr 3 min 51 sec) 
CPU 0 runs /datasets/cs240c-wi22-a00-public/data/Assignment2-gz/calculix_3812B.trace.gz
Heartbeat CPU 0 instructions: 1000001 cycles: 475279 heartbeat IPC: 2.10403 cumulative IPC: 2.10403 (Simulation time: 0 hr 3 min 53 sec) 
CPU 0 runs /datasets/cs240c-wi22-a00-public/data/Assignment2-gz/milc_360B.trace.gz
Heartbeat CPU 0 instructions: 1000001 cycles: 549889 heartbeat IPC: 1.81855 cumulative IPC: 1.81855 (Simulation time: 0 hr 3 min 53 sec) 
CPU 0 runs /datasets/cs240c-wi22-a00-public/data/Assignment2-gz/mcf_46B.trace.gz
Heartbeat CPU 0 instructions: 1000002 cycles: 482155 heartbeat IPC: 2.07403 cumulative IPC: 2.07403 (Simulation time: 0 hr 3 min 55 sec) 
CPU 0 runs /datasets/cs240c-wi22-a00-public/data/Assignment2-gz/soplex_217B.trace.gz
Heartbeat CPU 0 instructions: 1000000 cycles: 437356 heartbeat IPC: 2.28647 cumulative IPC: 2.28647 (Simulation time: 0 hr 3 min 55 sec) 
CPU 0 runs /datasets/cs240c-wi22-a00-public/data/Assignment2-gz/wrf_1650B.trace.gz
Heartbeat CPU 0 instructions: 1000000 cycles: 514412 heartbeat IPC: 1.94397 cumulative IPC: 1.94397 (Simulation time: 0 hr 3 min 55 sec) 
CPU 0 runs /datasets/cs240c-wi22-a00-public/data/Assignment2-gz/leslie3d_1116B.trace.gz
Heartbeat CPU 0 instructions: 1000001 cycles: 532936 heartbeat IPC: 1.8764 cumulative IPC: 1.8764 (Simulation time: 0 hr 3 min 56 sec) 
CPU 0 runs /datasets/cs240c-wi22-a00-public/data/Assignment2-gz/mcf_158B.trace.gz
Heartbeat CPU 0 instructions: 1000002 cycles: 496603 heartbeat IPC: 2.01368 cumulative IPC: 2.01368 (Simulation time: 0 hr 3 min 56 sec) 
CPU 0 runs /datasets/cs240c-wi22-a00-public/data/Assignment2-gz/perlbench_105B.trace.gz
Heartbeat CPU 0 instructions: 1000000 cycles: 578082 heartbeat IPC: 1.72986 cumulative IPC: 1.72986 (Simulation time: 0 hr 3 min 57 sec) 
CPU 0 runs /datasets/cs240c-wi22-a00-public/data/Assignment2-gz/omnetpp_340B.trace.gz
Heartbeat CPU 0 instructions: 1000001 cycles: 578280 heartbeat IPC: 1.72927 cumulative IPC: 1.72927 (Simulation time: 0 hr 4 min 4 sec) 
CPU 0 runs /datasets/cs240c-wi22-a00-public/data/Assignment2-gz/perlbench_135B.trace.gz
Heartbeat CPU 0 instructions: 1000000 cycles: 601490 heartbeat IPC: 1.66254 cumulative IPC: 1.66254 (Simulation time: 0 hr 4 min 5 sec) 
CPU 0 runs /datasets/cs240c-wi22-a00-public/data/Assignment2-gz/wrf_1212B.trace.gz
Heartbeat CPU 0 instructions: 1000001 cycles: 599253 heartbeat IPC: 1.66875 cumulative IPC: 1.66875 (Simulation time: 0 hr 4 min 7 sec) 
CPU 0 runs /datasets/cs240c-wi22-a00-public/data/Assignment2-gz/mcf_250B.trace.gz
Heartbeat CPU 0 instructions: 1000000 cycles: 527351 heartbeat IPC: 1.89627 cumulative IPC: 1.89627 (Simulation time: 0 hr 4 min 13 sec) 
CPU 0 runs /datasets/cs240c-wi22-a00-public/data/Assignment2-gz/leslie3d_94B.trace.gz
Heartbeat CPU 0 instructions: 1000003 cycles: 592147 heartbeat IPC: 1.68877 cumulative IPC: 1.68877 (Simulation time: 0 hr 4 min 14 sec) 
CPU 0 runs /datasets/cs240c-wi22-a00-public/data/Assignment2-gz/gcc_56B.trace.gz
Heartbeat CPU 0 instructions: 1000003 cycles: 954224 heartbeat IPC: 1.04798 cumulative IPC: 1.04798 (Simulation time: 0 hr 4 min 18 sec) 
CPU 0 runs /datasets/cs240c-wi22-a00-public/data/Assignment2-gz/gcc_13B.trace.gz
Heartbeat CPU 0 instructions: 1000000 cycles: 644728 heartbeat IPC: 1.55104 cumulative IPC: 1.55104 (Simulation time: 0 hr 4 min 17 sec) 
CPU 0 runs /datasets/cs240c-wi22-a00-public/data/Assignment2-gz/wrf_1228B.trace.gz
Heartbeat CPU 0 instructions: 1000003 cycles: 590333 heartbeat IPC: 1.69396 cumulative IPC: 1.69396 (Simulation time: 0 hr 4 min 17 sec) 
CPU 0 runs /datasets/cs240c-wi22-a00-public/data/Assignment2-gz/leslie3d_1186B.trace.gz
Heartbeat CPU 0 instructions: 1000002 cycles: 557793 heartbeat IPC: 1.79278 cumulative IPC: 1.79278 (Simulation time: 0 hr 4 min 18 sec) 
CPU 0 runs /datasets/cs240c-wi22-a00-public/data/Assignment2-gz/cactusADM_734B.trace.gz
Heartbeat CPU 0 instructions: 1000003 cycles: 592365 heartbeat IPC: 1.68815 cumulative IPC: 1.68815 (Simulation time: 0 hr 4 min 21 sec) 
CPU 0 runs /datasets/cs240c-wi22-a00-public/data/Assignment2-gz/GemsFDTD_109B.trace.gz
Heartbeat CPU 0 instructions: 1000002 cycles: 577063 heartbeat IPC: 1.73292 cumulative IPC: 1.73292 (Simulation time: 0 hr 4 min 26 sec) 
CPU 0 runs /datasets/cs240c-wi22-a00-public/data/Assignment2-gz/cactusADM_1495B.trace.gz
Heartbeat CPU 0 instructions: 1000003 cycles: 593354 heartbeat IPC: 1.68534 cumulative IPC: 1.68534 (Simulation time: 0 hr 4 min 27 sec) 
CPU 0 runs /datasets/cs240c-wi22-a00-public/data/Assignment2-gz/cactusADM_1039B.trace.gz
Heartbeat CPU 0 instructions: 1000000 cycles: 595112 heartbeat IPC: 1.68036 cumulative IPC: 1.68036 (Simulation time: 0 hr 4 min 27 sec) 
Heartbeat CPU 0 instructions: 2000001 cycles: 666677 heartbeat IPC: 3 cumulative IPC: 2.99995 (Simulation time: 0 hr 4 min 28 sec) 
CPU 0 runs /datasets/cs240c-wi22-a00-public/data/Assignment2-gz/perlbench_53B.trace.gz
Heartbeat CPU 0 instructions: 1000000 cycles: 617122 heartbeat IPC: 1.62043 cumulative IPC: 1.62043 (Simulation time: 0 hr 4 min 34 sec) 
Heartbeat CPU 0 instructions: 2000003 cycles: 666677 heartbeat IPC: 3.00001 cumulative IPC: 2.99996 (Simulation time: 0 hr 4 min 35 sec) 
CPU 0 runs /datasets/cs240c-wi22-a00-public/data/Assignment2-gz/GemsFDTD_712B.trace.gz
Heartbeat CPU 0 instructions: 1000003 cycles: 633083 heartbeat IPC: 1.57958 cumulative IPC: 1.57958 (Simulation time: 0 hr 4 min 35 sec) 
Heartbeat CPU 0 instructions: 2000000 cycles: 630173 heartbeat IPC: 3.17201 cumulative IPC: 3.17373 (Simulation time: 0 hr 4 min 38 sec) 
CPU 0 runs /datasets/cs240c-wi22-a00-public/data/Assignment2-gz/astar_313B.trace.gz
Heartbeat CPU 0 instructions: 1000001 cycles: 678650 heartbeat IPC: 1.47352 cumulative IPC: 1.47352 (Simulation time: 0 hr 4 min 52 sec) 
Heartbeat CPU 0 instructions: 2000001 cycles: 746536 heartbeat IPC: 2.66571 cumulative IPC: 2.67904 (Simulation time: 0 hr 5 min 14 sec) 
Heartbeat CPU 0 instructions: 2000001 cycles: 1135262 heartbeat IPC: 1.75924 cumulative IPC: 1.76171 (Simulation time: 0 hr 6 min 6 sec) 
Heartbeat CPU 0 instructions: 2000001 cycles: 814374 heartbeat IPC: 2.45781 cumulative IPC: 2.45588 (Simulation time: 0 hr 6 min 9 sec) 
Heartbeat CPU 0 instructions: 2000002 cycles: 842770 heartbeat IPC: 2.34501 cumulative IPC: 2.37313 (Simulation time: 0 hr 6 min 14 sec) 
Heartbeat CPU 0 instructions: 2000001 cycles: 1039679 heartbeat IPC: 1.92478 cumulative IPC: 1.92367 (Simulation time: 0 hr 6 min 26 sec) 
Heartbeat CPU 0 instructions: 2000003 cycles: 1059161 heartbeat IPC: 1.81564 cumulative IPC: 1.88829 (Simulation time: 0 hr 6 min 27 sec) 
Heartbeat CPU 0 instructions: 2000001 cycles: 691941 heartbeat IPC: 2.82882 cumulative IPC: 2.89042 (Simulation time: 0 hr 6 min 27 sec) 
Heartbeat CPU 0 instructions: 2000000 cycles: 735301 heartbeat IPC: 2.51866 cumulative IPC: 2.71997 (Simulation time: 0 hr 6 min 34 sec) 
Heartbeat CPU 0 instructions: 2000001 cycles: 928928 heartbeat IPC: 2.15304 cumulative IPC: 2.15302 (Simulation time: 0 hr 6 min 36 sec) 
Heartbeat CPU 0 instructions: 2000000 cycles: 821532 heartbeat IPC: 2.44815 cumulative IPC: 2.43448 (Simulation time: 0 hr 6 min 39 sec) 
Heartbeat CPU 0 instructions: 2000003 cycles: 785321 heartbeat IPC: 2.53112 cumulative IPC: 2.54673 (Simulation time: 0 hr 6 min 42 sec) 
Heartbeat CPU 0 instructions: 2000002 cycles: 1133995 heartbeat IPC: 1.74151 cumulative IPC: 1.76368 (Simulation time: 0 hr 6 min 44 sec) 
Heartbeat CPU 0 instructions: 3000000 cycles: 1000009 heartbeat IPC: 3.00001 cumulative IPC: 2.99997 (Simulation time: 0 hr 6 min 45 sec) 
Heartbeat CPU 0 instructions: 2000003 cycles: 861405 heartbeat IPC: 2.3124 cumulative IPC: 2.32179 (Simulation time: 0 hr 6 min 46 sec) 
Heartbeat CPU 0 instructions: 3000001 cycles: 989047 heartbeat IPC: 3.10202 cumulative IPC: 3.03322 (Simulation time: 0 hr 6 min 50 sec) 
Heartbeat CPU 0 instructions: 2000001 cycles: 951159 heartbeat IPC: 1.98772 cumulative IPC: 2.1027 (Simulation time: 0 hr 6 min 53 sec) 
Heartbeat CPU 0 instructions: 2000003 cycles: 830875 heartbeat IPC: 2.40744 cumulative IPC: 2.4071 (Simulation time: 0 hr 6 min 56 sec) 
Heartbeat CPU 0 instructions: 2000001 cycles: 782981 heartbeat IPC: 2.55437 cumulative IPC: 2.55434 (Simulation time: 0 hr 6 min 56 sec) 
Heartbeat CPU 0 instructions: 2000002 cycles: 890222 heartbeat IPC: 2.01668 cumulative IPC: 2.24663 (Simulation time: 0 hr 6 min 56 sec) 
Heartbeat CPU 0 instructions: 2000000 cycles: 812709 heartbeat IPC: 2.56214 cumulative IPC: 2.46091 (Simulation time: 0 hr 7 min 0 sec) 
Heartbeat CPU 0 instructions: 2000001 cycles: 720965 heartbeat IPC: 2.77115 cumulative IPC: 2.77406 (Simulation time: 0 hr 7 min 5 sec) 
Heartbeat CPU 0 instructions: 3000003 cycles: 945982 heartbeat IPC: 3.16648 cumulative IPC: 3.17131 (Simulation time: 0 hr 7 min 6 sec) 
Heartbeat CPU 0 instructions: 2000003 cycles: 899728 heartbeat IPC: 2.20263 cumulative IPC: 2.2229 (Simulation time: 0 hr 7 min 10 sec) 
Heartbeat CPU 0 instructions: 2000003 cycles: 797919 heartbeat IPC: 2.77345 cumulative IPC: 2.50652 (Simulation time: 0 hr 7 min 19 sec) 
Heartbeat CPU 0 instructions: 2000001 cycles: 766759 heartbeat IPC: 2.60852 cumulative IPC: 2.60838 (Simulation time: 0 hr 7 min 25 sec) 
Heartbeat CPU 0 instructions: 2000000 cycles: 882610 heartbeat IPC: 2.08386 cumulative IPC: 2.26601 (Simulation time: 0 hr 7 min 24 sec) 
Heartbeat CPU 0 instructions: 2000002 cycles: 1020757 heartbeat IPC: 1.95939 cumulative IPC: 1.95933 (Simulation time: 0 hr 7 min 41 sec) 
Heartbeat CPU 0 instructions: 2000003 cycles: 1099779 heartbeat IPC: 1.81855 cumulative IPC: 1.81855 (Simulation time: 0 hr 7 min 45 sec) 
Heartbeat CPU 0 instructions: 2000002 cycles: 992508 heartbeat IPC: 2.01652 cumulative IPC: 2.0151 (Simulation time: 0 hr 7 min 46 sec) 
Heartbeat CPU 0 instructions: 2000003 cycles: 1060018 heartbeat IPC: 1.88949 cumulative IPC: 1.88676 (Simulation time: 0 hr 7 min 48 sec) 
Heartbeat CPU 0 instructions: 2000003 cycles: 1066398 heartbeat IPC: 1.87455 cumulative IPC: 1.87548 (Simulation time: 0 hr 7 min 55 sec) 
Heartbeat CPU 0 instructions: 2000002 cycles: 967412 heartbeat IPC: 2.06076 cumulative IPC: 2.06737 (Simulation time: 0 hr 7 min 56 sec) 
Heartbeat CPU 0 instructions: 2000001 cycles: 1164382 heartbeat IPC: 1.70561 cumulative IPC: 1.71765 (Simulation time: 0 hr 7 min 56 sec) 
Heartbeat CPU 0 instructions: 2000000 cycles: 1028660 heartbeat IPC: 1.94459 cumulative IPC: 1.94428 (Simulation time: 0 hr 7 min 59 sec) 
Heartbeat CPU 0 instructions: 3000002 cycles: 1121180 heartbeat IPC: 2.6692 cumulative IPC: 2.67575 (Simulation time: 0 hr 7 min 59 sec) 
Heartbeat CPU 0 instructions: 2000002 cycles: 1206641 heartbeat IPC: 1.62735 cumulative IPC: 1.6575 (Simulation time: 0 hr 8 min 2 sec) 
Heartbeat CPU 0 instructions: 2000000 cycles: 1198243 heartbeat IPC: 1.66948 cumulative IPC: 1.66911 (Simulation time: 0 hr 8 min 8 sec) 
Heartbeat CPU 0 instructions: 2000002 cycles: 1100489 heartbeat IPC: 1.96018 cumulative IPC: 1.81738 (Simulation time: 0 hr 8 min 11 sec) 
Heartbeat CPU 0 instructions: 2000002 cycles: 949743 heartbeat IPC: 2.10764 cumulative IPC: 2.10583 (Simulation time: 0 hr 8 min 13 sec) 
Heartbeat CPU 0 instructions: 2000000 cycles: 1212073 heartbeat IPC: 1.63778 cumulative IPC: 1.65007 (Simulation time: 0 hr 8 min 18 sec) 
Heartbeat CPU 0 instructions: 2000000 cycles: 1162467 heartbeat IPC: 1.71178 cumulative IPC: 1.72048 (Simulation time: 0 hr 8 min 21 sec) 
Heartbeat CPU 0 instructions: 2000001 cycles: 1898520 heartbeat IPC: 1.05899 cumulative IPC: 1.05345 (Simulation time: 0 hr 8 min 27 sec) 
Heartbeat CPU 0 instructions: 2000001 cycles: 1257194 heartbeat IPC: 1.63275 cumulative IPC: 1.59085 (Simulation time: 0 hr 8 min 32 sec) 
Heartbeat CPU 0 instructions: 2000003 cycles: 1029137 heartbeat IPC: 1.99289 cumulative IPC: 1.94338 (Simulation time: 0 hr 8 min 38 sec) 
Heartbeat CPU 0 instructions: 2000000 cycles: 1266011 heartbeat IPC: 1.57995 cumulative IPC: 1.57977 (Simulation time: 0 hr 8 min 45 sec) 
Heartbeat CPU 0 instructions: 2000001 cycles: 1185295 heartbeat IPC: 1.68654 cumulative IPC: 1.68734 (Simulation time: 0 hr 8 min 52 sec) 
Heartbeat CPU 0 instructions: 3000001 cycles: 1722681 heartbeat IPC: 1.70236 cumulative IPC: 1.74147 (Simulation time: 0 hr 8 min 54 sec) 
Heartbeat CPU 0 instructions: 2000000 cycles: 1186182 heartbeat IPC: 1.68682 cumulative IPC: 1.68608 (Simulation time: 0 hr 8 min 56 sec) 
Heartbeat CPU 0 instructions: 2000002 cycles: 1190036 heartbeat IPC: 1.68089 cumulative IPC: 1.68062 (Simulation time: 0 hr 8 min 57 sec) 
Heartbeat CPU 0 instructions: 2000003 cycles: 1154104 heartbeat IPC: 1.73298 cumulative IPC: 1.73295 (Simulation time: 0 hr 8 min 58 sec) 
Heartbeat CPU 0 instructions: 3000003 cycles: 1252582 heartbeat IPC: 2.44015 cumulative IPC: 2.39506 (Simulation time: 0 hr 9 min 0 sec) 
Heartbeat CPU 0 instructions: 2000000 cycles: 1204525 heartbeat IPC: 1.54623 cumulative IPC: 1.66041 (Simulation time: 0 hr 9 min 0 sec) 
Heartbeat CPU 0 instructions: 4000000 cycles: 1290772 heartbeat IPC: 3.31427 cumulative IPC: 3.09892 (Simulation time: 0 hr 9 min 1 sec) 
Heartbeat CPU 0 instructions: 4000000 cycles: 1333342 heartbeat IPC: 3 cumulative IPC: 2.99998 (Simulation time: 0 hr 9 min 1 sec) 
Heartbeat CPU 0 instructions: 2000001 cycles: 1255808 heartbeat IPC: 1.56572 cumulative IPC: 1.5926 (Simulation time: 0 hr 9 min 13 sec) 
Heartbeat CPU 0 instructions: 3000003 cycles: 1221893 heartbeat IPC: 2.45388 cumulative IPC: 2.45521 (Simulation time: 0 hr 9 min 13 sec) 
Heartbeat CPU 0 instructions: 2000003 cycles: 1269335 heartbeat IPC: 1.69295 cumulative IPC: 1.57563 (Simulation time: 0 hr 9 min 24 sec) 
Heartbeat CPU 0 instructions: 4000000 cycles: 1260334 heartbeat IPC: 3.18114 cumulative IPC: 3.17376 (Simulation time: 0 hr 9 min 28 sec) 
Heartbeat CPU 0 instructions: 3000002 cycles: 1602081 heartbeat IPC: 1.84189 cumulative IPC: 1.87257 (Simulation time: 0 hr 9 min 37 sec) 
Heartbeat CPU 0 instructions: 3000003 cycles: 1294920 heartbeat IPC: 2.11244 cumulative IPC: 2.31675 (Simulation time: 0 hr 9 min 38 sec) 
Heartbeat CPU 0 instructions: 3000001 cycles: 1769252 heartbeat IPC: 1.57416 cumulative IPC: 1.69563 (Simulation time: 0 hr 9 min 43 sec) 
Heartbeat CPU 0 instructions: 3000003 cycles: 1181536 heartbeat IPC: 2.24098 cumulative IPC: 2.53907 (Simulation time: 0 hr 9 min 43 sec) 
Heartbeat CPU 0 instructions: 3000001 cycles: 1559976 heartbeat IPC: 1.92198 cumulative IPC: 1.92311 (Simulation time: 0 hr 9 min 47 sec) 
Heartbeat CPU 0 instructions: 3000000 cycles: 1081973 heartbeat IPC: 2.56389 cumulative IPC: 2.77271 (Simulation time: 0 hr 9 min 51 sec) 
Heartbeat CPU 0 instructions: 3000003 cycles: 1393617 heartbeat IPC: 2.15198 cumulative IPC: 2.15267 (Simulation time: 0 hr 9 min 58 sec) 
Heartbeat CPU 0 instructions: 3000002 cycles: 1175571 heartbeat IPC: 2.56246 cumulative IPC: 2.55195 (Simulation time: 0 hr 10 min 1 sec) 
Heartbeat CPU 0 instructions: 3000001 cycles: 1457648 heartbeat IPC: 1.97438 cumulative IPC: 2.05811 (Simulation time: 0 hr 10 min 7 sec) 
Heartbeat CPU 0 instructions: 3000001 cycles: 1287146 heartbeat IPC: 2.34884 cumulative IPC: 2.33074 (Simulation time: 0 hr 10 min 11 sec) 
Heartbeat CPU 0 instructions: 3000000 cycles: 1286935 heartbeat IPC: 2.19269 cumulative IPC: 2.33112 (Simulation time: 0 hr 10 min 16 sec) 
Heartbeat CPU 0 instructions: 3000001 cycles: 1174398 heartbeat IPC: 2.55482 cumulative IPC: 2.5545 (Simulation time: 0 hr 10 min 23 sec) 
Heartbeat CPU 0 instructions: 3000000 cycles: 1211869 heartbeat IPC: 2.50526 cumulative IPC: 2.47552 (Simulation time: 0 hr 10 min 31 sec) 
Heartbeat CPU 0 instructions: 4000000 cycles: 1487470 heartbeat IPC: 2.73007 cumulative IPC: 2.68913 (Simulation time: 0 hr 10 min 33 sec) 
Heartbeat CPU 0 instructions: 3000000 cycles: 1079917 heartbeat IPC: 2.78589 cumulative IPC: 2.77799 (Simulation time: 0 hr 10 min 34 sec) 
Heartbeat CPU 0 instructions: 3000002 cycles: 1314505 heartbeat IPC: 2.41093 cumulative IPC: 2.28223 (Simulation time: 0 hr 10 min 44 sec) 
Heartbeat CPU 0 instructions: 3000000 cycles: 1248883 heartbeat IPC: 2.21747 cumulative IPC: 2.40215 (Simulation time: 0 hr 11 min 1 sec) 
Heartbeat CPU 0 instructions: 3000001 cycles: 1150170 heartbeat IPC: 2.60817 cumulative IPC: 2.60831 (Simulation time: 0 hr 11 min 12 sec) 
Heartbeat CPU 0 instructions: 5000000 cycles: 1592498 heartbeat IPC: 3.31427 cumulative IPC: 3.13972 (Simulation time: 0 hr 11 min 18 sec) 

Warmup complete CPU 0 instructions: 5000004 cycles: 1592499 (Simulation time: 0 hr 11 min 18 sec) 

Heartbeat CPU 0 instructions: 5000001 cycles: 1666677 heartbeat IPC: 2.99999 cumulative IPC: 2.99998 (Simulation time: 0 hr 11 min 21 sec) 

Warmup complete CPU 0 instructions: 5000001 cycles: 1666677 (Simulation time: 0 hr 11 min 21 sec) 

Heartbeat CPU 0 instructions: 3000000 cycles: 1359988 heartbeat IPC: 2.12872 cumulative IPC: 2.2059 (Simulation time: 0 hr 11 min 34 sec) 
Heartbeat CPU 0 instructions: 3000002 cycles: 1589730 heartbeat IPC: 1.88782 cumulative IPC: 1.88711 (Simulation time: 0 hr 11 min 38 sec) 
Heartbeat CPU 0 instructions: 3000001 cycles: 1649612 heartbeat IPC: 1.81873 cumulative IPC: 1.81861 (Simulation time: 0 hr 11 min 39 sec) 
Heartbeat CPU 0 instructions: 3000003 cycles: 1600517 heartbeat IPC: 1.87224 cumulative IPC: 1.8744 (Simulation time: 0 hr 11 min 43 sec) 
Heartbeat CPU 0 instructions: 3000002 cycles: 1529819 heartbeat IPC: 1.9644 cumulative IPC: 1.96102 (Simulation time: 0 hr 11 min 44 sec) 
Heartbeat CPU 0 instructions: 4000000 cycles: 1637935 heartbeat IPC: 2.59502 cumulative IPC: 2.4421 (Simulation time: 0 hr 11 min 48 sec) 
Heartbeat CPU 0 instructions: 3000001 cycles: 1726618 heartbeat IPC: 1.77861 cumulative IPC: 1.7375 (Simulation time: 0 hr 11 min 47 sec) 
Heartbeat CPU 0 instructions: 4000000 cycles: 2291977 heartbeat IPC: 1.75655 cumulative IPC: 1.74522 (Simulation time: 0 hr 11 min 51 sec) 
Heartbeat CPU 0 instructions: 3000000 cycles: 1483587 heartbeat IPC: 1.93732 cumulative IPC: 2.02213 (Simulation time: 0 hr 11 min 52 sec) 
Heartbeat CPU 0 instructions: 3000000 cycles: 1488933 heartbeat IPC: 2.0144 cumulative IPC: 2.01487 (Simulation time: 0 hr 11 min 53 sec) 
Heartbeat CPU 0 instructions: 5000000 cycles: 1576820 heartbeat IPC: 3.1597 cumulative IPC: 3.17094 (Simulation time: 0 hr 11 min 54 sec) 

Warmup complete CPU 0 instructions: 5000004 cycles: 1576821 (Simulation time: 0 hr 11 min 54 sec) 

Heartbeat CPU 0 instructions: 3000001 cycles: 1546521 heartbeat IPC: 1.93102 cumulative IPC: 1.93984 (Simulation time: 0 hr 11 min 58 sec) 
Heartbeat CPU 0 instructions: 3000003 cycles: 1662911 heartbeat IPC: 1.28156 cumulative IPC: 1.80407 (Simulation time: 0 hr 12 min 5 sec) 
Heartbeat CPU 0 instructions: 3000003 cycles: 1854534 heartbeat IPC: 1.54347 cumulative IPC: 1.61766 (Simulation time: 0 hr 12 min 6 sec) 
Heartbeat CPU 0 instructions: 4000000 cycles: 1629601 heartbeat IPC: 2.45273 cumulative IPC: 2.45459 (Simulation time: 0 hr 12 min 10 sec) 
Heartbeat CPU 0 instructions: 3000001 cycles: 1797630 heartbeat IPC: 1.66837 cumulative IPC: 1.66886 (Simulation time: 0 hr 12 min 15 sec) 
Heartbeat CPU 0 instructions: 3000000 cycles: 1708706 heartbeat IPC: 1.64415 cumulative IPC: 1.75571 (Simulation time: 0 hr 12 min 21 sec) 
Heartbeat CPU 0 instructions: 3000000 cycles: 1836606 heartbeat IPC: 1.6012 cumulative IPC: 1.63345 (Simulation time: 0 hr 12 min 25 sec) 
Heartbeat CPU 0 instructions: 3000000 cycles: 1735139 heartbeat IPC: 2.09229 cumulative IPC: 1.72897 (Simulation time: 0 hr 12 min 25 sec) 
Heartbeat CPU 0 instructions: 3000002 cycles: 1425613 heartbeat IPC: 2.10141 cumulative IPC: 2.10436 (Simulation time: 0 hr 12 min 34 sec) 
Heartbeat CPU 0 instructions: 4000000 cycles: 1633292 heartbeat IPC: 2.95532 cumulative IPC: 2.44904 (Simulation time: 0 hr 12 min 42 sec) 
Heartbeat CPU 0 instructions: 4000000 cycles: 2334552 heartbeat IPC: 1.76897 cumulative IPC: 1.71339 (Simulation time: 0 hr 12 min 44 sec) 
Heartbeat CPU 0 instructions: 3000000 cycles: 1898576 heartbeat IPC: 1.58087 cumulative IPC: 1.58013 (Simulation time: 0 hr 12 min 44 sec) 
Heartbeat CPU 0 instructions: 3000001 cycles: 1760247 heartbeat IPC: 1.67286 cumulative IPC: 1.70431 (Simulation time: 0 hr 12 min 47 sec) 
Heartbeat CPU 0 instructions: 4000000 cycles: 1519954 heartbeat IPC: 2.95492 cumulative IPC: 2.63166 (Simulation time: 0 hr 12 min 47 sec) 
Heartbeat CPU 0 instructions: 3000002 cycles: 1512594 heartbeat IPC: 2.06843 cumulative IPC: 1.98335 (Simulation time: 0 hr 12 min 48 sec) 
Heartbeat CPU 0 instructions: 4000000 cycles: 2087846 heartbeat IPC: 2.0586 cumulative IPC: 1.91585 (Simulation time: 0 hr 12 min 52 sec) 
Heartbeat CPU 0 instructions: 4000000 cycles: 1526801 heartbeat IPC: 2.24806 cumulative IPC: 2.61986 (Simulation time: 0 hr 12 min 53 sec) 
Heartbeat CPU 0 instructions: 4000000 cycles: 2081696 heartbeat IPC: 1.91674 cumulative IPC: 1.92151 (Simulation time: 0 hr 12 min 54 sec) 
Heartbeat CPU 0 instructions: 3000001 cycles: 2885884 heartbeat IPC: 1.0128 cumulative IPC: 1.03954 (Simulation time: 0 hr 13 min 3 sec) 
Heartbeat CPU 0 instructions: 4000000 cycles: 1858062 heartbeat IPC: 2.1531 cumulative IPC: 2.15278 (Simulation time: 0 hr 13 min 2 sec) 
Heartbeat CPU 0 instructions: 5000003 cycles: 1860159 heartbeat IPC: 2.68321 cumulative IPC: 2.68794 (Simulation time: 0 hr 13 min 8 sec) 

Warmup complete CPU 0 instructions: 5000003 cycles: 1860159 (Simulation time: 0 hr 13 min 8 sec) 

Heartbeat CPU 0 instructions: 3000003 cycles: 1785063 heartbeat IPC: 1.6806 cumulative IPC: 1.68061 (Simulation time: 0 hr 13 min 12 sec) 
Heartbeat CPU 0 instructions: 3000003 cycles: 1778084 heartbeat IPC: 1.68694 cumulative IPC: 1.68721 (Simulation time: 0 hr 13 min 13 sec) 
Heartbeat CPU 0 instructions: 3000003 cycles: 1779362 heartbeat IPC: 1.68583 cumulative IPC: 1.686 (Simulation time: 0 hr 13 min 14 sec) 
Heartbeat CPU 0 instructions: 4000000 cycles: 1928242 heartbeat IPC: 2.12497 cumulative IPC: 2.07443 (Simulation time: 0 hr 13 min 25 sec) 
Heartbeat CPU 0 instructions: 4000000 cycles: 1685678 heartbeat IPC: 2.50921 cumulative IPC: 2.37293 (Simulation time: 0 hr 13 min 28 sec) 
Heartbeat CPU 0 instructions: 4000000 cycles: 1565780 heartbeat IPC: 2.56272 cumulative IPC: 2.55464 (Simulation time: 0 hr 13 min 28 sec) 
Heartbeat CPU 0 instructions: 4000000 cycles: 1744228 heartbeat IPC: 2.18678 cumulative IPC: 2.29328 (Simulation time: 0 hr 13 min 30 sec) 
Heartbeat CPU 0 instructions: 4000000 cycles: 1570637 heartbeat IPC: 2.52373 cumulative IPC: 2.54674 (Simulation time: 0 hr 13 min 34 sec) 
Heartbeat CPU 0 instructions: 3000000 cycles: 1851623 heartbeat IPC: 1.54536 cumulative IPC: 1.6202 (Simulation time: 0 hr 13 min 37 sec) 
Heartbeat CPU 0 instructions: 3000000 cycles: 1730653 heartbeat IPC: 1.73445 cumulative IPC: 1.73345 (Simulation time: 0 hr 13 min 39 sec) 
Heartbeat CPU 0 instructions: 3000003 cycles: 1945609 heartbeat IPC: 1.47869 cumulative IPC: 1.54194 (Simulation time: 0 hr 13 min 44 sec) 
Heartbeat CPU 0 instructions: 4000000 cycles: 1441377 heartbeat IPC: 2.76656 cumulative IPC: 2.77512 (Simulation time: 0 hr 13 min 58 sec) 
Heartbeat CPU 0 instructions: 4000000 cycles: 1632024 heartbeat IPC: 2.38007 cumulative IPC: 2.45094 (Simulation time: 0 hr 13 min 59 sec) 
Heartbeat CPU 0 instructions: 4000000 cycles: 1753029 heartbeat IPC: 2.28037 cumulative IPC: 2.28176 (Simulation time: 0 hr 14 min 11 sec) 
Heartbeat CPU 0 instructions: 3000002 cycles: 1912368 heartbeat IPC: 1.52309 cumulative IPC: 1.56874 (Simulation time: 0 hr 14 min 24 sec) 
Heartbeat CPU 0 instructions: 5000000 cycles: 2038454 heartbeat IPC: 2.49676 cumulative IPC: 2.45284 (Simulation time: 0 hr 14 min 35 sec) 

Warmup complete CPU 0 instructions: 5000001 cycles: 2038456 (Simulation time: 0 hr 14 min 35 sec) 

Heartbeat CPU 0 instructions: 4000000 cycles: 1687079 heartbeat IPC: 2.28208 cumulative IPC: 2.37096 (Simulation time: 0 hr 14 min 46 sec) 
Heartbeat CPU 0 instructions: 6000001 cycles: 4821197 heartbeat IPC: 0.309723 cumulative IPC: 0.309721 (Simulation time: 0 hr 14 min 49 sec) 
Heartbeat CPU 0 instructions: 5000000 cycles: 2866135 heartbeat IPC: 1.74168 cumulative IPC: 1.74451 (Simulation time: 0 hr 14 min 50 sec) 

Warmup complete CPU 0 instructions: 5000002 cycles: 2866136 (Simulation time: 0 hr 14 min 50 sec) 

Heartbeat CPU 0 instructions: 4000000 cycles: 1533552 heartbeat IPC: 2.60836 cumulative IPC: 2.60832 (Simulation time: 0 hr 14 min 59 sec) 
Heartbeat CPU 0 instructions: 5000001 cycles: 2037319 heartbeat IPC: 2.45268 cumulative IPC: 2.45421 (Simulation time: 0 hr 15 min 9 sec) 

Warmup complete CPU 0 instructions: 5000001 cycles: 2037319 (Simulation time: 0 hr 15 min 9 sec) 

Heartbeat CPU 0 instructions: 4000000 cycles: 1722260 heartbeat IPC: 2.76036 cumulative IPC: 2.32253 (Simulation time: 0 hr 15 min 19 sec) 
Heartbeat CPU 0 instructions: 6000002 cycles: 3664216 heartbeat IPC: 0.500616 cumulative IPC: 0.500616 (Simulation time: 0 hr 15 min 20 sec) 
Heartbeat CPU 0 instructions: 4000000 cycles: 2199464 heartbeat IPC: 1.81867 cumulative IPC: 1.81862 (Simulation time: 0 hr 15 min 22 sec) 
Heartbeat CPU 0 instructions: 4000000 cycles: 2119462 heartbeat IPC: 1.88774 cumulative IPC: 1.88727 (Simulation time: 0 hr 15 min 25 sec) 
Heartbeat CPU 0 instructions: 4000000 cycles: 2133411 heartbeat IPC: 1.87654 cumulative IPC: 1.87493 (Simulation time: 0 hr 15 min 26 sec) 
Heartbeat CPU 0 instructions: 4000000 cycles: 2306048 heartbeat IPC: 1.72583 cumulative IPC: 1.73457 (Simulation time: 0 hr 15 min 34 sec) 
Heartbeat CPU 0 instructions: 4000000 cycles: 2038994 heartbeat IPC: 1.96396 cumulative IPC: 1.96175 (Simulation time: 0 hr 15 min 35 sec) 
Heartbeat CPU 0 instructions: 4000000 cycles: 1983961 heartbeat IPC: 2.02009 cumulative IPC: 2.01617 (Simulation time: 0 hr 15 min 46 sec) 
Heartbeat CPU 0 instructions: 6000001 cycles: 4802736 heartbeat IPC: 0.30999 cumulative IPC: 0.309989 (Simulation time: 0 hr 15 min 49 sec) 
Heartbeat CPU 0 instructions: 4000000 cycles: 1993587 heartbeat IPC: 1.96078 cumulative IPC: 2.00643 (Simulation time: 0 hr 15 min 49 sec) 
Heartbeat CPU 0 instructions: 5000002 cycles: 2893959 heartbeat IPC: 1.78761 cumulative IPC: 1.72774 (Simulation time: 0 hr 15 min 54 sec) 

Warmup complete CPU 0 instructions: 5000002 cycles: 2893959 (Simulation time: 0 hr 15 min 54 sec) 

Heartbeat CPU 0 instructions: 5000003 cycles: 1865235 heartbeat IPC: 2.95479 cumulative IPC: 2.68063 (Simulation time: 0 hr 15 min 54 sec) 

Warmup complete CPU 0 instructions: 5000003 cycles: 1865235 (Simulation time: 0 hr 15 min 54 sec) 

Heartbeat CPU 0 instructions: 5000000 cycles: 1987098 heartbeat IPC: 2.82641 cumulative IPC: 2.51623 (Simulation time: 0 hr 15 min 55 sec) 

Warmup complete CPU 0 instructions: 5000004 cycles: 1987099 (Simulation time: 0 hr 15 min 55 sec) 

Heartbeat CPU 0 instructions: 4000000 cycles: 2502077 heartbeat IPC: 1.54429 cumulative IPC: 1.59867 (Simulation time: 0 hr 16 min 1 sec) 
Heartbeat CPU 0 instructions: 4000000 cycles: 2064469 heartbeat IPC: 1.93069 cumulative IPC: 1.93754 (Simulation time: 0 hr 16 min 4 sec) 
Heartbeat CPU 0 instructions: 5000001 cycles: 2571024 heartbeat IPC: 2.06963 cumulative IPC: 1.94475 (Simulation time: 0 hr 16 min 9 sec) 

Warmup complete CPU 0 instructions: 5000001 cycles: 2571024 (Simulation time: 0 hr 16 min 9 sec) 

Heartbeat CPU 0 instructions: 4000000 cycles: 2212866 heartbeat IPC: 2.09325 cumulative IPC: 1.80761 (Simulation time: 0 hr 16 min 9 sec) 
Heartbeat CPU 0 instructions: 5000000 cycles: 2602077 heartbeat IPC: 1.92167 cumulative IPC: 1.92154 (Simulation time: 0 hr 16 min 11 sec) 

Warmup complete CPU 0 instructions: 5000001 cycles: 2602078 (Simulation time: 0 hr 16 min 11 sec) 

Heartbeat CPU 0 instructions: 6000003 cycles: 2440238 heartbeat IPC: 1.7239 cumulative IPC: 1.7239 (Simulation time: 0 hr 16 min 16 sec) 
Heartbeat CPU 0 instructions: 5000001 cycles: 1897207 heartbeat IPC: 2.65074 cumulative IPC: 2.63545 (Simulation time: 0 hr 16 min 16 sec) 

Warmup complete CPU 0 instructions: 5000001 cycles: 1897207 (Simulation time: 0 hr 16 min 16 sec) 

Heartbeat CPU 0 instructions: 4000000 cycles: 2396228 heartbeat IPC: 1.67057 cumulative IPC: 1.66929 (Simulation time: 0 hr 16 min 21 sec) 
Heartbeat CPU 0 instructions: 5000003 cycles: 2322491 heartbeat IPC: 2.15319 cumulative IPC: 2.15286 (Simulation time: 0 hr 16 min 23 sec) 

Warmup complete CPU 0 instructions: 5000003 cycles: 2322491 (Simulation time: 0 hr 16 min 23 sec) 

Heartbeat CPU 0 instructions: 4000000 cycles: 2497342 heartbeat IPC: 1.51346 cumulative IPC: 1.6017 (Simulation time: 0 hr 16 min 31 sec) 
Heartbeat CPU 0 instructions: 4000000 cycles: 2319532 heartbeat IPC: 1.63713 cumulative IPC: 1.72449 (Simulation time: 0 hr 16 min 39 sec) 
Heartbeat CPU 0 instructions: 5000000 cycles: 2425411 heartbeat IPC: 2.01139 cumulative IPC: 2.06151 (Simulation time: 0 hr 16 min 46 sec) 

Warmup complete CPU 0 instructions: 5000004 cycles: 2425412 (Simulation time: 0 hr 16 min 46 sec) 

Heartbeat CPU 0 instructions: 5000000 cycles: 1960919 heartbeat IPC: 2.53076 cumulative IPC: 2.54982 (Simulation time: 0 hr 16 min 46 sec) 

Warmup complete CPU 0 instructions: 5000004 cycles: 1960920 (Simulation time: 0 hr 16 min 46 sec) 

Heartbeat CPU 0 instructions: 5000000 cycles: 2159515 heartbeat IPC: 2.40797 cumulative IPC: 2.31533 (Simulation time: 0 hr 16 min 48 sec) 

Warmup complete CPU 0 instructions: 5000001 cycles: 2159516 (Simulation time: 0 hr 16 min 48 sec) 

Heartbeat CPU 0 instructions: 4000000 cycles: 2530776 heartbeat IPC: 1.58178 cumulative IPC: 1.58054 (Simulation time: 0 hr 16 min 47 sec) 
Heartbeat CPU 0 instructions: 4000000 cycles: 1895811 heartbeat IPC: 2.12676 cumulative IPC: 2.10992 (Simulation time: 0 hr 16 min 50 sec) 
Heartbeat CPU 0 instructions: 5000001 cycles: 2104126 heartbeat IPC: 2.38979 cumulative IPC: 2.37628 (Simulation time: 0 hr 16 min 54 sec) 

Warmup complete CPU 0 instructions: 5000001 cycles: 2104126 (Simulation time: 0 hr 16 min 54 sec) 

Heartbeat CPU 0 instructions: 4000000 cycles: 2443121 heartbeat IPC: 1.2817 cumulative IPC: 1.63725 (Simulation time: 0 hr 16 min 57 sec) 
Heartbeat CPU 0 instructions: 5000002 cycles: 1962081 heartbeat IPC: 2.55465 cumulative IPC: 2.54832 (Simulation time: 0 hr 17 min 3 sec) 

Warmup complete CPU 0 instructions: 5000002 cycles: 1962081 (Simulation time: 0 hr 17 min 3 sec) 

Heartbeat CPU 0 instructions: 5000001 cycles: 2022269 heartbeat IPC: 2.5625 cumulative IPC: 2.47247 (Simulation time: 0 hr 17 min 3 sec) 

Warmup complete CPU 0 instructions: 5000001 cycles: 2022269 (Simulation time: 0 hr 17 min 3 sec) 

Heartbeat CPU 0 instructions: 4000000 cycles: 2381474 heartbeat IPC: 1.60972 cumulative IPC: 1.67963 (Simulation time: 0 hr 17 min 4 sec) 
Heartbeat CPU 0 instructions: 4000000 cycles: 2006931 heartbeat IPC: 2.02291 cumulative IPC: 1.99309 (Simulation time: 0 hr 17 min 8 sec) 
Heartbeat CPU 0 instructions: 5000000 cycles: 1803459 heartbeat IPC: 2.76181 cumulative IPC: 2.77245 (Simulation time: 0 hr 17 min 16 sec) 

Warmup complete CPU 0 instructions: 5000004 cycles: 1803460 (Simulation time: 0 hr 17 min 16 sec) 

Heartbeat CPU 0 instructions: 4000000 cycles: 3848630 heartbeat IPC: 1.03869 cumulative IPC: 1.03933 (Simulation time: 0 hr 17 min 18 sec) 
Heartbeat CPU 0 instructions: 4000000 cycles: 2372043 heartbeat IPC: 1.68724 cumulative IPC: 1.68631 (Simulation time: 0 hr 17 min 32 sec) 
Heartbeat CPU 0 instructions: 5000002 cycles: 2174869 heartbeat IPC: 2.37057 cumulative IPC: 2.29899 (Simulation time: 0 hr 17 min 38 sec) 

Warmup complete CPU 0 instructions: 5000002 cycles: 2174869 (Simulation time: 0 hr 17 min 38 sec) 

Heartbeat CPU 0 instructions: 5000001 cycles: 2072152 heartbeat IPC: 2.59691 cumulative IPC: 2.41295 (Simulation time: 0 hr 17 min 42 sec) 

Warmup complete CPU 0 instructions: 5000001 cycles: 2072152 (Simulation time: 0 hr 17 min 42 sec) 

Heartbeat CPU 0 instructions: 4000000 cycles: 2370621 heartbeat IPC: 1.68765 cumulative IPC: 1.68732 (Simulation time: 0 hr 17 min 48 sec) 
Heartbeat CPU 0 instructions: 4000000 cycles: 2380257 heartbeat IPC: 1.68012 cumulative IPC: 1.68049 (Simulation time: 0 hr 17 min 48 sec) 
Heartbeat CPU 0 instructions: 6000000 cycles: 4956352 heartbeat IPC: 0.342712 cumulative IPC: 0.342712 (Simulation time: 0 hr 17 min 51 sec) 
Heartbeat CPU 0 instructions: 4000000 cycles: 2452089 heartbeat IPC: 1.66537 cumulative IPC: 1.63126 (Simulation time: 0 hr 17 min 55 sec) 
Heartbeat CPU 0 instructions: 4000000 cycles: 2306946 heartbeat IPC: 1.73523 cumulative IPC: 1.73389 (Simulation time: 0 hr 18 min 2 sec) 
Heartbeat CPU 0 instructions: 6000002 cycles: 5754631 heartbeat IPC: 0.346202 cumulative IPC: 0.346201 (Simulation time: 0 hr 18 min 15 sec) 
Heartbeat CPU 0 instructions: 4000000 cycles: 2621717 heartbeat IPC: 1.47905 cumulative IPC: 1.52572 (Simulation time: 0 hr 18 min 16 sec) 
Heartbeat CPU 0 instructions: 7000002 cycles: 8040362 heartbeat IPC: 0.31064 cumulative IPC: 0.31018 (Simulation time: 0 hr 18 min 24 sec) 
Heartbeat CPU 0 instructions: 5000001 cycles: 1916947 heartbeat IPC: 2.60828 cumulative IPC: 2.60831 (Simulation time: 0 hr 18 min 47 sec) 

Warmup complete CPU 0 instructions: 5000001 cycles: 1916947 (Simulation time: 0 hr 18 min 47 sec) 

Heartbeat CPU 0 instructions: 6000000 cycles: 2905684 heartbeat IPC: 1.15159 cumulative IPC: 1.15159 (Simulation time: 0 hr 18 min 48 sec) 
Heartbeat CPU 0 instructions: 5000000 cycles: 2651055 heartbeat IPC: 1.88114 cumulative IPC: 1.88604 (Simulation time: 0 hr 18 min 57 sec) 

Warmup complete CPU 0 instructions: 5000001 cycles: 2651058 (Simulation time: 0 hr 18 min 57 sec) 

Heartbeat CPU 0 instructions: 7000001 cycles: 5849143 heartbeat IPC: 0.457681 cumulative IPC: 0.478187 (Simulation time: 0 hr 18 min 59 sec) 
Heartbeat CPU 0 instructions: 4000000 cycles: 2528843 heartbeat IPC: 1.62212 cumulative IPC: 1.58175 (Simulation time: 0 hr 19 min 1 sec) 
Heartbeat CPU 0 instructions: 5000003 cycles: 2548012 heartbeat IPC: 1.96457 cumulative IPC: 1.96232 (Simulation time: 0 hr 19 min 12 sec) 

Warmup complete CPU 0 instructions: 5000003 cycles: 2548012 (Simulation time: 0 hr 19 min 12 sec) 

Heartbeat CPU 0 instructions: 5000001 cycles: 2666043 heartbeat IPC: 1.87747 cumulative IPC: 1.87544 (Simulation time: 0 hr 19 min 17 sec) 

Warmup complete CPU 0 instructions: 5000001 cycles: 2666043 (Simulation time: 0 hr 19 min 17 sec) 

Heartbeat CPU 0 instructions: 7000000 cycles: 2988311 heartbeat IPC: 1.82457 cumulative IPC: 1.77281 (Simulation time: 0 hr 19 min 18 sec) 
Heartbeat CPU 0 instructions: 5000002 cycles: 2749347 heartbeat IPC: 1.81857 cumulative IPC: 1.81861 (Simulation time: 0 hr 19 min 21 sec) 

Warmup complete CPU 0 instructions: 5000002 cycles: 2749347 (Simulation time: 0 hr 19 min 21 sec) 

Heartbeat CPU 0 instructions: 5000003 cycles: 2884306 heartbeat IPC: 1.72934 cumulative IPC: 1.73352 (Simulation time: 0 hr 19 min 23 sec) 

Warmup complete CPU 0 instructions: 5000003 cycles: 2884306 (Simulation time: 0 hr 19 min 23 sec) 

Heartbeat CPU 0 instructions: 5000001 cycles: 2171081 heartbeat IPC: 2.22806 cumulative IPC: 2.303 (Simulation time: 0 hr 19 min 25 sec) 

Warmup complete CPU 0 instructions: 5000001 cycles: 2171081 (Simulation time: 0 hr 19 min 25 sec) 

Heartbeat CPU 0 instructions: 5000002 cycles: 2477615 heartbeat IPC: 2.02571 cumulative IPC: 2.01807 (Simulation time: 0 hr 19 min 31 sec) 

Warmup complete CPU 0 instructions: 5000002 cycles: 2477615 (Simulation time: 0 hr 19 min 31 sec) 

Heartbeat CPU 0 instructions: 6000001 cycles: 3075679 heartbeat IPC: 2.11148 cumulative IPC: 2.11148 (Simulation time: 0 hr 19 min 33 sec) 
Heartbeat CPU 0 instructions: 6000000 cycles: 5911265 heartbeat IPC: 0.331421 cumulative IPC: 0.331421 (Simulation time: 0 hr 19 min 33 sec) 
Heartbeat CPU 0 instructions: 6000001 cycles: 3243959 heartbeat IPC: 1.08522 cumulative IPC: 1.08522 (Simulation time: 0 hr 19 min 49 sec) 
Heartbeat CPU 0 instructions: 6000000 cycles: 3438409 heartbeat IPC: 1.15289 cumulative IPC: 1.15289 (Simulation time: 0 hr 19 min 52 sec) 
Heartbeat CPU 0 instructions: 6000001 cycles: 3900218 heartbeat IPC: 0.678056 cumulative IPC: 0.678053 (Simulation time: 0 hr 19 min 53 sec) 
Heartbeat CPU 0 instructions: 5000000 cycles: 2476245 heartbeat IPC: 2.07186 cumulative IPC: 2.01919 (Simulation time: 0 hr 19 min 53 sec) 

Warmup complete CPU 0 instructions: 5000004 cycles: 2476246 (Simulation time: 0 hr 19 min 53 sec) 

Heartbeat CPU 0 instructions: 6000002 cycles: 4075400 heartbeat IPC: 0.452454 cumulative IPC: 0.452454 (Simulation time: 0 hr 19 min 53 sec) 
Heartbeat CPU 0 instructions: 7000001 cycles: 7987048 heartbeat IPC: 0.31404 cumulative IPC: 0.312001 (Simulation time: 0 hr 19 min 58 sec) 
Heartbeat CPU 0 instructions: 5000002 cycles: 3062355 heartbeat IPC: 1.78483 cumulative IPC: 1.63273 (Simulation time: 0 hr 20 min 2 sec) 

Warmup complete CPU 0 instructions: 5000002 cycles: 3062355 (Simulation time: 0 hr 20 min 2 sec) 

Heartbeat CPU 0 instructions: 6000002 cycles: 3131508 heartbeat IPC: 0.973349 cumulative IPC: 0.973349 (Simulation time: 0 hr 20 min 7 sec) 
Heartbeat CPU 0 instructions: 5000001 cycles: 2582394 heartbeat IPC: 1.93078 cumulative IPC: 1.93619 (Simulation time: 0 hr 20 min 8 sec) 

Warmup complete CPU 0 instructions: 5000001 cycles: 2582394 (Simulation time: 0 hr 20 min 8 sec) 

Heartbeat CPU 0 instructions: 5000002 cycles: 2691067 heartbeat IPC: 2.09118 cumulative IPC: 1.858 (Simulation time: 0 hr 20 min 8 sec) 

Warmup complete CPU 0 instructions: 5000002 cycles: 2691067 (Simulation time: 0 hr 20 min 8 sec) 

Heartbeat CPU 0 instructions: 5000000 cycles: 2346967 heartbeat IPC: 2.21653 cumulative IPC: 2.13041 (Simulation time: 0 hr 20 min 14 sec) 

Warmup complete CPU 0 instructions: 5000003 cycles: 2346968 (Simulation time: 0 hr 20 min 14 sec) 

Heartbeat CPU 0 instructions: 5000000 cycles: 2995748 heartbeat IPC: 1.668 cumulative IPC: 1.66903 (Simulation time: 0 hr 20 min 15 sec) 

Warmup complete CPU 0 instructions: 5000001 cycles: 2995749 (Simulation time: 0 hr 20 min 15 sec) 

Heartbeat CPU 0 instructions: 6000002 cycles: 3537864 heartbeat IPC: 0.609513 cumulative IPC: 0.609513 (Simulation time: 0 hr 20 min 16 sec) 
Heartbeat CPU 0 instructions: 6000000 cycles: 4577668 heartbeat IPC: 0.386015 cumulative IPC: 0.386014 (Simulation time: 0 hr 20 min 31 sec) 
Heartbeat CPU 0 instructions: 5000001 cycles: 3085110 heartbeat IPC: 1.70135 cumulative IPC: 1.62069 (Simulation time: 0 hr 20 min 39 sec) 

Warmup complete CPU 0 instructions: 5000001 cycles: 3085110 (Simulation time: 0 hr 20 min 39 sec) 

Heartbeat CPU 0 instructions: 6000000 cycles: 4588330 heartbeat IPC: 0.359083 cumulative IPC: 0.359082 (Simulation time: 0 hr 20 min 40 sec) 
Heartbeat CPU 0 instructions: 6000000 cycles: 3553611 heartbeat IPC: 0.725297 cumulative IPC: 0.725297 (Simulation time: 0 hr 20 min 42 sec) 
Heartbeat CPU 0 instructions: 5000000 cycles: 3014538 heartbeat IPC: 1.43884 cumulative IPC: 1.65863 (Simulation time: 0 hr 20 min 45 sec) 

Warmup complete CPU 0 instructions: 5000004 cycles: 3014540 (Simulation time: 0 hr 20 min 45 sec) 

Heartbeat CPU 0 instructions: 6000002 cycles: 3433187 heartbeat IPC: 0.679226 cumulative IPC: 0.679223 (Simulation time: 0 hr 20 min 45 sec) 
Heartbeat CPU 0 instructions: 5000003 cycles: 3163175 heartbeat IPC: 1.58128 cumulative IPC: 1.58069 (Simulation time: 0 hr 20 min 52 sec) 

Warmup complete CPU 0 instructions: 5000003 cycles: 3163175 (Simulation time: 0 hr 20 min 52 sec) 

Heartbeat CPU 0 instructions: 7000002 cycles: 7627864 heartbeat IPC: 0.374321 cumulative IPC: 0.35782 (Simulation time: 0 hr 20 min 54 sec) 
Heartbeat CPU 0 instructions: 6000000 cycles: 4075591 heartbeat IPC: 0.499141 cumulative IPC: 0.499141 (Simulation time: 0 hr 21 min 12 sec) 
Heartbeat CPU 0 instructions: 6000002 cycles: 3467684 heartbeat IPC: 0.664186 cumulative IPC: 0.664186 (Simulation time: 0 hr 21 min 18 sec) 
Heartbeat CPU 0 instructions: 6000000 cycles: 3793414 heartbeat IPC: 0.564606 cumulative IPC: 0.564606 (Simulation time: 0 hr 21 min 18 sec) 
Heartbeat CPU 0 instructions: 5000002 cycles: 4738254 heartbeat IPC: 1.12407 cumulative IPC: 1.05524 (Simulation time: 0 hr 21 min 18 sec) 

Warmup complete CPU 0 instructions: 5000002 cycles: 4738254 (Simulation time: 0 hr 21 min 18 sec) 

Heartbeat CPU 0 instructions: 5000000 cycles: 3123528 heartbeat IPC: 1.46971 cumulative IPC: 1.60075 (Simulation time: 0 hr 21 min 19 sec) 

Warmup complete CPU 0 instructions: 5000004 cycles: 3123529 (Simulation time: 0 hr 21 min 19 sec) 

Heartbeat CPU 0 instructions: 5000002 cycles: 2497818 heartbeat IPC: 2.03713 cumulative IPC: 2.00175 (Simulation time: 0 hr 21 min 28 sec) 

Warmup complete CPU 0 instructions: 5000002 cycles: 2497818 (Simulation time: 0 hr 21 min 28 sec) 

Heartbeat CPU 0 instructions: 6000000 cycles: 3507343 heartbeat IPC: 0.741934 cumulative IPC: 0.741934 (Simulation time: 0 hr 21 min 28 sec) 
Heartbeat CPU 0 instructions: 5000002 cycles: 2956979 heartbeat IPC: 1.73761 cumulative IPC: 1.69092 (Simulation time: 0 hr 21 min 29 sec) 

Warmup complete CPU 0 instructions: 5000002 cycles: 2956979 (Simulation time: 0 hr 21 min 29 sec) 

Heartbeat CPU 0 instructions: 7000000 cycles: 8780390 heartbeat IPC: 0.330495 cumulative IPC: 0.338166 (Simulation time: 0 hr 21 min 39 sec) 
Heartbeat CPU 0 instructions: 8000000 cycles: 11180318 heartbeat IPC: 0.318475 cumulative IPC: 0.312897 (Simulation time: 0 hr 21 min 47 sec) 
Heartbeat CPU 0 instructions: 5000000 cycles: 2964991 heartbeat IPC: 1.68649 cumulative IPC: 1.68635 (Simulation time: 0 hr 21 min 56 sec) 

Warmup complete CPU 0 instructions: 5000004 cycles: 2964992 (Simulation time: 0 hr 21 min 56 sec) 

Heartbeat CPU 0 instructions: 5000000 cycles: 3057859 heartbeat IPC: 1.65079 cumulative IPC: 1.63513 (Simulation time: 0 hr 22 min 10 sec) 

Warmup complete CPU 0 instructions: 5000002 cycles: 3057860 (Simulation time: 0 hr 22 min 10 sec) 

Heartbeat CPU 0 instructions: 8000000 cycles: 3535767 heartbeat IPC: 1.82663 cumulative IPC: 1.79039 (Simulation time: 0 hr 22 min 11 sec) 
Heartbeat CPU 0 instructions: 5000001 cycles: 2975033 heartbeat IPC: 1.68131 cumulative IPC: 1.68065 (Simulation time: 0 hr 22 min 20 sec) 

Warmup complete CPU 0 instructions: 5000001 cycles: 2975033 (Simulation time: 0 hr 22 min 20 sec) 

Heartbeat CPU 0 instructions: 5000000 cycles: 2963700 heartbeat IPC: 1.68612 cumulative IPC: 1.68708 (Simulation time: 0 hr 22 min 21 sec) 

Warmup complete CPU 0 instructions: 5000004 cycles: 2963701 (Simulation time: 0 hr 22 min 21 sec) 

Heartbeat CPU 0 instructions: 7000002 cycles: 3778956 heartbeat IPC: 1.14512 cumulative IPC: 1.14835 (Simulation time: 0 hr 22 min 28 sec) 
Heartbeat CPU 0 instructions: 5000000 cycles: 2883589 heartbeat IPC: 1.73418 cumulative IPC: 1.73395 (Simulation time: 0 hr 22 min 34 sec) 

Warmup complete CPU 0 instructions: 5000004 cycles: 2883590 (Simulation time: 0 hr 22 min 34 sec) 

Heartbeat CPU 0 instructions: 8000000 cycles: 8138677 heartbeat IPC: 0.43677 cumulative IPC: 0.463535 (Simulation time: 0 hr 22 min 38 sec) 
Heartbeat CPU 0 instructions: 5000002 cycles: 3298017 heartbeat IPC: 1.47864 cumulative IPC: 1.51606 (Simulation time: 0 hr 22 min 58 sec) 

Warmup complete CPU 0 instructions: 5000002 cycles: 3298017 (Simulation time: 0 hr 22 min 58 sec) 

Heartbeat CPU 0 instructions: 7000001 cycles: 5479144 heartbeat IPC: 0.633342 cumulative IPC: 0.654935 (Simulation time: 0 hr 23 min 6 sec) 
Heartbeat CPU 0 instructions: 7000003 cycles: 4155251 heartbeat IPC: 0.976809 cumulative IPC: 0.975076 (Simulation time: 0 hr 23 min 9 sec) 
Heartbeat CPU 0 instructions: 7000001 cycles: 3552712 heartbeat IPC: 2.09629 cumulative IPC: 2.10386 (Simulation time: 0 hr 23 min 10 sec) 
Heartbeat CPU 0 instructions: 7000001 cycles: 4166510 heartbeat IPC: 1.08395 cumulative IPC: 1.08459 (Simulation time: 0 hr 23 min 14 sec) 
Heartbeat CPU 0 instructions: 7000000 cycles: 9785148 heartbeat IPC: 0.258139 cumulative IPC: 0.290225 (Simulation time: 0 hr 23 min 20 sec) 
Heartbeat CPU 0 instructions: 6000000 cycles: 4821686 heartbeat IPC: 0.460696 cumulative IPC: 0.460696 (Simulation time: 0 hr 23 min 21 sec) 
Heartbeat CPU 0 instructions: 6000000 cycles: 3833180 heartbeat IPC: 0.521857 cumulative IPC: 0.521857 (Simulation time: 0 hr 23 min 21 sec) 
Heartbeat CPU 0 instructions: 6000001 cycles: 2984440 heartbeat IPC: 1.5687 cumulative IPC: 1.56869 (Simulation time: 0 hr 23 min 29 sec) 
Heartbeat CPU 0 instructions: 7000001 cycles: 5680680 heartbeat IPC: 0.622944 cumulative IPC: 0.524185 (Simulation time: 0 hr 23 min 39 sec) 
Heartbeat CPU 0 instructions: 7000000 cycles: 4389588 heartbeat IPC: 1.05133 cumulative IPC: 1.09977 (Simulation time: 0 hr 23 min 41 sec) 
Heartbeat CPU 0 instructions: 6000001 cycles: 4328778 heartbeat IPC: 0.601419 cumulative IPC: 0.601419 (Simulation time: 0 hr 23 min 43 sec) 
Heartbeat CPU 0 instructions: 6000001 cycles: 4698199 heartbeat IPC: 0.513122 cumulative IPC: 0.513122 (Simulation time: 0 hr 23 min 43 sec) 
Heartbeat CPU 0 instructions: 5000001 cycles: 3158592 heartbeat IPC: 1.58794 cumulative IPC: 1.58298 (Simulation time: 0 hr 23 min 47 sec) 

Warmup complete CPU 0 instructions: 5000001 cycles: 3158592 (Simulation time: 0 hr 23 min 47 sec) 

Heartbeat CPU 0 instructions: 7000002 cycles: 4764772 heartbeat IPC: 0.825656 cumulative IPC: 0.77223 (Simulation time: 0 hr 23 min 55 sec) 
Heartbeat CPU 0 instructions: 6000000 cycles: 3914634 heartbeat IPC: 0.731729 cumulative IPC: 0.731729 (Simulation time: 0 hr 23 min 59 sec) 
Heartbeat CPU 0 instructions: 6000000 cycles: 4880065 heartbeat IPC: 0.550142 cumulative IPC: 0.550142 (Simulation time: 0 hr 24 min 4 sec) 
Heartbeat CPU 0 instructions: 7000000 cycles: 7710367 heartbeat IPC: 0.320304 cumulative IPC: 0.338586 (Simulation time: 0 hr 24 min 8 sec) 
Heartbeat CPU 0 instructions: 8000000 cycles: 11186317 heartbeat IPC: 0.312571 cumulative IPC: 0.312191 (Simulation time: 0 hr 24 min 10 sec) 
Heartbeat CPU 0 instructions: 7000000 cycles: 5153553 heartbeat IPC: 0.61893 cumulative IPC: 0.614185 (Simulation time: 0 hr 24 min 19 sec) 
Heartbeat CPU 0 instructions: 8000000 cycles: 11323822 heartbeat IPC: 0.270565 cumulative IPC: 0.323089 (Simulation time: 0 hr 24 min 42 sec) 
Heartbeat CPU 0 instructions: 6000003 cycles: 5270109 heartbeat IPC: 0.419146 cumulative IPC: 0.419146 (Simulation time: 0 hr 24 min 42 sec) 
Heartbeat CPU 0 instructions: 7000000 cycles: 7005964 heartbeat IPC: 0.411811 cumulative IPC: 0.398496 (Simulation time: 0 hr 24 min 44 sec) 
Heartbeat CPU 0 instructions: 8000000 cycles: 12228146 heartbeat IPC: 0.290044 cumulative IPC: 0.320444 (Simulation time: 0 hr 24 min 47 sec) 
Heartbeat CPU 0 instructions: 7000000 cycles: 5140393 heartbeat IPC: 0.585751 cumulative IPC: 0.629034 (Simulation time: 0 hr 24 min 47 sec) 
Heartbeat CPU 0 instructions: 6000001 cycles: 4812623 heartbeat IPC: 0.550396 cumulative IPC: 0.550396 (Simulation time: 0 hr 25 min 7 sec) 
Heartbeat CPU 0 instructions: 6000002 cycles: 4867499 heartbeat IPC: 0.539678 cumulative IPC: 0.539676 (Simulation time: 0 hr 25 min 11 sec) 
Heartbeat CPU 0 instructions: 6000001 cycles: 14602048 heartbeat IPC: 0.082478 cumulative IPC: 0.082478 (Simulation time: 0 hr 25 min 15 sec) 
Heartbeat CPU 0 instructions: 9000000 cycles: 4082145 heartbeat IPC: 1.83023 cumulative IPC: 1.80019 (Simulation time: 0 hr 25 min 14 sec) 
Heartbeat CPU 0 instructions: 6000003 cycles: 5728197 heartbeat IPC: 0.378346 cumulative IPC: 0.378346 (Simulation time: 0 hr 25 min 24 sec) 
Heartbeat CPU 0 instructions: 9000000 cycles: 13189282 heartbeat IPC: 0.497769 cumulative IPC: 0.344923 (Simulation time: 0 hr 25 min 34 sec) 
Heartbeat CPU 0 instructions: 7000003 cycles: 5180195 heartbeat IPC: 0.583938 cumulative IPC: 0.621482 (Simulation time: 0 hr 25 min 35 sec) 
Heartbeat CPU 0 instructions: 6000000 cycles: 6905100 heartbeat IPC: 0.211237 cumulative IPC: 0.211237 (Simulation time: 0 hr 25 min 37 sec) 
Heartbeat CPU 0 instructions: 7000001 cycles: 5698950 heartbeat IPC: 0.524787 cumulative IPC: 0.543969 (Simulation time: 0 hr 25 min 38 sec) 
Heartbeat CPU 0 instructions: 6000003 cycles: 4216266 heartbeat IPC: 0.612044 cumulative IPC: 0.612044 (Simulation time: 0 hr 25 min 39 sec) 
Heartbeat CPU 0 instructions: 6000000 cycles: 6128534 heartbeat IPC: 0.719278 cumulative IPC: 0.719278 (Simulation time: 0 hr 25 min 41 sec) 
Heartbeat CPU 0 instructions: 6000003 cycles: 7047017 heartbeat IPC: 0.229571 cumulative IPC: 0.229571 (Simulation time: 0 hr 25 min 51 sec) 
Heartbeat CPU 0 instructions: 8000000 cycles: 6701467 heartbeat IPC: 0.818114 cumulative IPC: 0.70158 (Simulation time: 0 hr 25 min 52 sec) 
Heartbeat CPU 0 instructions: 7000001 cycles: 8862781 heartbeat IPC: 0.208891 cumulative IPC: 0.294524 (Simulation time: 0 hr 25 min 57 sec) 
Heartbeat CPU 0 instructions: 6000003 cycles: 5440780 heartbeat IPC: 0.431547 cumulative IPC: 0.431545 (Simulation time: 0 hr 25 min 58 sec) 
Heartbeat CPU 0 instructions: 6000003 cycles: 9672802 heartbeat IPC: 0.138956 cumulative IPC: 0.138955 (Simulation time: 0 hr 26 min 5 sec) 
Heartbeat CPU 0 instructions: 8000000 cycles: 5218976 heartbeat IPC: 0.94009 cumulative IPC: 0.963128 (Simulation time: 0 hr 26 min 5 sec) 
Heartbeat CPU 0 instructions: 6000002 cycles: 6313820 heartbeat IPC: 0.317395 cumulative IPC: 0.317395 (Simulation time: 0 hr 26 min 7 sec) 
Heartbeat CPU 0 instructions: 8000000 cycles: 4648701 heartbeat IPC: 1.14976 cumulative IPC: 1.14882 (Simulation time: 0 hr 26 min 8 sec) 
Heartbeat CPU 0 instructions: 9000001 cycles: 10438766 heartbeat IPC: 0.434766 cumulative IPC: 0.455992 (Simulation time: 0 hr 26 min 8 sec) 
Heartbeat CPU 0 instructions: 7000000 cycles: 4855253 heartbeat IPC: 0.741889 cumulative IPC: 0.741912 (Simulation time: 0 hr 26 min 11 sec) 
Heartbeat CPU 0 instructions: 8000000 cycles: 10831470 heartbeat IPC: 0.955729 cumulative IPC: 0.377952 (Simulation time: 0 hr 26 min 12 sec) 
Heartbeat CPU 0 instructions: 8000000 cycles: 4026025 heartbeat IPC: 2.11276 cumulative IPC: 2.10682 (Simulation time: 0 hr 26 min 43 sec) 
Heartbeat CPU 0 instructions: 8000000 cycles: 5089586 heartbeat IPC: 1.08333 cumulative IPC: 1.08417 (Simulation time: 0 hr 26 min 45 sec) 
Heartbeat CPU 0 instructions: 6000001 cycles: 4989627 heartbeat IPC: 0.493916 cumulative IPC: 0.493915 (Simulation time: 0 hr 26 min 53 sec) 
Heartbeat CPU 0 instructions: 7000000 cycles: 3542426 heartbeat IPC: 1.79216 cumulative IPC: 1.673 (Simulation time: 0 hr 26 min 59 sec) 
Heartbeat CPU 0 instructions: 8000000 cycles: 5875029 heartbeat IPC: 0.900691 cumulative IPC: 0.810775 (Simulation time: 0 hr 27 min 6 sec) 
Heartbeat CPU 0 instructions: 6000002 cycles: 5096258 heartbeat IPC: 0.471426 cumulative IPC: 0.471426 (Simulation time: 0 hr 27 min 13 sec) 
Heartbeat CPU 0 instructions: 8000000 cycles: 7336765 heartbeat IPC: 0.603833 cumulative IPC: 0.548292 (Simulation time: 0 hr 27 min 13 sec) 
Heartbeat CPU 0 instructions: 6000000 cycles: 4877774 heartbeat IPC: 0.549476 cumulative IPC: 0.549475 (Simulation time: 0 hr 27 min 17 sec) 
Heartbeat CPU 0 instructions: 8000000 cycles: 5410837 heartbeat IPC: 0.979193 cumulative IPC: 1.05641 (Simulation time: 0 hr 27 min 17 sec) 
Heartbeat CPU 0 instructions: 6000000 cycles: 13624988 heartbeat IPC: 0.0898699 cumulative IPC: 0.0898699 (Simulation time: 0 hr 27 min 24 sec) 
Heartbeat CPU 0 instructions: 6000002 cycles: 5078266 heartbeat IPC: 0.472911 cumulative IPC: 0.47291 (Simulation time: 0 hr 27 min 32 sec) 
Heartbeat CPU 0 instructions: 7000001 cycles: 7001647 heartbeat IPC: 0.458724 cumulative IPC: 0.459708 (Simulation time: 0 hr 27 min 33 sec) 
Heartbeat CPU 0 instructions: 8000000 cycles: 10505242 heartbeat IPC: 0.357798 cumulative IPC: 0.344757 (Simulation time: 0 hr 27 min 39 sec) 
Heartbeat CPU 0 instructions: 7000002 cycles: 5762001 heartbeat IPC: 0.518452 cumulative IPC: 0.520149 (Simulation time: 0 hr 27 min 40 sec) 
Heartbeat CPU 0 instructions: 6000003 cycles: 7547069 heartbeat IPC: 0.217861 cumulative IPC: 0.217861 (Simulation time: 0 hr 27 min 40 sec) 
Heartbeat CPU 0 instructions: 7000000 cycles: 6633789 heartbeat IPC: 0.516638 cumulative IPC: 0.514874 (Simulation time: 0 hr 27 min 59 sec) 
Heartbeat CPU 0 instructions: 9000001 cycles: 15404503 heartbeat IPC: 0.314826 cumulative IPC: 0.319021 (Simulation time: 0 hr 28 min 6 sec) 
Heartbeat CPU 0 instructions: 7000000 cycles: 5839552 heartbeat IPC: 0.661912 cumulative IPC: 0.630217 (Simulation time: 0 hr 28 min 10 sec) 
Heartbeat CPU 0 instructions: 8000000 cycles: 8629950 heartbeat IPC: 0.615769 cumulative IPC: 0.451613 (Simulation time: 0 hr 28 min 13 sec) 
Heartbeat CPU 0 instructions: 8000000 cycles: 6836901 heartbeat IPC: 0.594054 cumulative IPC: 0.607325 (Simulation time: 0 hr 28 min 15 sec) 
Heartbeat CPU 0 instructions: 10000002 cycles: 5048303 heartbeat IPC: 1.03503 cumulative IPC: 1.56831 (Simulation time: 0 hr 28 min 15 sec) 
Heartbeat CPU 0 instructions: 7000001 cycles: 5305651 heartbeat IPC: 0.718899 cumulative IPC: 0.725257 (Simulation time: 0 hr 28 min 18 sec) 
Heartbeat CPU 0 instructions: 7000002 cycles: 6683949 heartbeat IPC: 0.554361 cumulative IPC: 0.552243 (Simulation time: 0 hr 28 min 21 sec) 
Heartbeat CPU 0 instructions: 6000000 cycles: 5525356 heartbeat IPC: 0.378535 cumulative IPC: 0.378533 (Simulation time: 0 hr 28 min 22 sec) 
Heartbeat CPU 0 instructions: 9000001 cycles: 14319061 heartbeat IPC: 0.333863 cumulative IPC: 0.325717 (Simulation time: 0 hr 28 min 32 sec) 
Heartbeat CPU 0 instructions: 9000002 cycles: 14420761 heartbeat IPC: 0.309173 cumulative IPC: 0.311431 (Simulation time: 0 hr 28 min 33 sec) 
Heartbeat CPU 0 instructions: 6000001 cycles: 12881254 heartbeat IPC: 0.104349 cumulative IPC: 0.104349 (Simulation time: 0 hr 28 min 42 sec) 
Heartbeat CPU 0 instructions: 8000000 cycles: 6843967 heartbeat IPC: 0.587001 cumulative IPC: 0.61437 (Simulation time: 0 hr 28 min 49 sec) 
Heartbeat CPU 0 instructions: 10000002 cycles: 15189511 heartbeat IPC: 0.499944 cumulative IPC: 0.367728 (Simulation time: 0 hr 28 min 57 sec) 
Heartbeat CPU 0 instructions: 9000000 cycles: 6244656 heartbeat IPC: 0.974963 cumulative IPC: 0.96606 (Simulation time: 0 hr 29 min 2 sec) 
Heartbeat CPU 0 instructions: 9000001 cycles: 11879028 heartbeat IPC: 0.954602 cumulative IPC: 0.445183 (Simulation time: 0 hr 29 min 3 sec) 
Heartbeat CPU 0 instructions: 9000003 cycles: 7999026 heartbeat IPC: 0.77068 cumulative IPC: 0.717667 (Simulation time: 0 hr 29 min 6 sec) 
Heartbeat CPU 0 instructions: 6000001 cycles: 5872632 heartbeat IPC: 0.368454 cumulative IPC: 0.368454 (Simulation time: 0 hr 29 min 25 sec) 
Heartbeat CPU 0 instructions: 7000000 cycles: 8698082 heartbeat IPC: 0.55773 cumulative IPC: 0.306419 (Simulation time: 0 hr 29 min 28 sec) 
Heartbeat CPU 0 instructions: 7000001 cycles: 6713859 heartbeat IPC: 0.541606 cumulative IPC: 0.540639 (Simulation time: 0 hr 29 min 29 sec) 
Heartbeat CPU 0 instructions: 8000000 cycles: 6816907 heartbeat IPC: 0.610979 cumulative IPC: 0.617941 (Simulation time: 0 hr 29 min 31 sec) 
Heartbeat CPU 0 instructions: 8000000 cycles: 7297272 heartbeat IPC: 0.625656 cumulative IPC: 0.56872 (Simulation time: 0 hr 29 min 33 sec) 
Heartbeat CPU 0 instructions: 9000000 cycles: 5522095 heartbeat IPC: 1.14496 cumulative IPC: 1.14785 (Simulation time: 0 hr 29 min 40 sec) 
Heartbeat CPU 0 instructions: 7000001 cycles: 6602001 heartbeat IPC: 0.558853 cumulative IPC: 0.554592 (Simulation time: 0 hr 29 min 47 sec) 
Heartbeat CPU 0 instructions: 10000000 cycles: 12737240 heartbeat IPC: 0.435071 cumulative IPC: 0.451648 (Simulation time: 0 hr 29 min 52 sec) 
Heartbeat CPU 0 instructions: 7000000 cycles: 8383151 heartbeat IPC: 0.376653 cumulative IPC: 0.377498 (Simulation time: 0 hr 29 min 58 sec) 
Heartbeat CPU 0 instructions: 7000000 cycles: 7492454 heartbeat IPC: 0.733181 cumulative IPC: 0.726163 (Simulation time: 0 hr 30 min 0 sec) 
Heartbeat CPU 0 instructions: 9000001 cycles: 6031576 heartbeat IPC: 1.06158 cumulative IPC: 1.07843 (Simulation time: 0 hr 30 min 1 sec) 
Heartbeat CPU 0 instructions: 9000001 cycles: 4502728 heartbeat IPC: 2.09774 cumulative IPC: 2.10454 (Simulation time: 0 hr 30 min 11 sec) 
Heartbeat CPU 0 instructions: 7000000 cycles: 7691774 heartbeat IPC: 0.412938 cumulative IPC: 0.416019 (Simulation time: 0 hr 30 min 14 sec) 
Heartbeat CPU 0 instructions: 8000000 cycles: 4095056 heartbeat IPC: 1.80953 cumulative IPC: 1.71616 (Simulation time: 0 hr 30 min 16 sec) 
Heartbeat CPU 0 instructions: 9000000 cycles: 7175680 heartbeat IPC: 0.768846 cumulative IPC: 0.79987 (Simulation time: 0 hr 30 min 24 sec) 
Heartbeat CPU 0 instructions: 7000002 cycles: 7711024 heartbeat IPC: 0.440481 cumulative IPC: 0.435967 (Simulation time: 0 hr 30 min 25 sec) 
Heartbeat CPU 0 instructions: 8000000 cycles: 6267515 heartbeat IPC: 0.708084 cumulative IPC: 0.730282 (Simulation time: 0 hr 30 min 35 sec) 
Heartbeat CPU 0 instructions: 7000000 cycles: 26721843 heartbeat IPC: 0.0825096 cumulative IPC: 0.0824938 (Simulation time: 0 hr 30 min 39 sec) 
Heartbeat CPU 0 instructions: 7000000 cycles: 5841926 heartbeat IPC: 0.615133 cumulative IPC: 0.613585 (Simulation time: 0 hr 30 min 58 sec) 
Heartbeat CPU 0 instructions: 9000000 cycles: 6353546 heartbeat IPC: 1.06077 cumulative IPC: 1.0575 (Simulation time: 0 hr 31 min 3 sec) 
Heartbeat CPU 0 instructions: 9000000 cycles: 13311121 heartbeat IPC: 0.356395 cumulative IPC: 0.347594 (Simulation time: 0 hr 31 min 6 sec) 
Heartbeat CPU 0 instructions: 11000001 cycles: 5663441 heartbeat IPC: 1.62565 cumulative IPC: 1.57758 (Simulation time: 0 hr 31 min 6 sec) 
Heartbeat CPU 0 instructions: 7000002 cycles: 11451074 heartbeat IPC: 0.227063 cumulative IPC: 0.22831 (Simulation time: 0 hr 31 min 9 sec) 
Heartbeat CPU 0 instructions: 9000003 cycles: 9233879 heartbeat IPC: 0.527118 cumulative IPC: 0.542841 (Simulation time: 0 hr 31 min 9 sec) 
Heartbeat CPU 0 instructions: 8000000 cycles: 13214801 heartbeat IPC: 0.229778 cumulative IPC: 0.269236 (Simulation time: 0 hr 31 min 14 sec) 
Heartbeat CPU 0 instructions: 10000000 cycles: 18908007 heartbeat IPC: 0.285428 cumulative IPC: 0.311684 (Simulation time: 0 hr 31 min 16 sec) 
Heartbeat CPU 0 instructions: 9000000 cycles: 9607932 heartbeat IPC: 1.02251 cumulative IPC: 0.524876 (Simulation time: 0 hr 31 min 39 sec) 
Heartbeat CPU 0 instructions: 7000000 cycles: 7086124 heartbeat IPC: 0.476986 cumulative IPC: 0.485303 (Simulation time: 0 hr 31 min 43 sec) 
Heartbeat CPU 0 instructions: 8000000 cycles: 7693226 heartbeat IPC: 0.517805 cumulative IPC: 0.519365 (Simulation time: 0 hr 31 min 43 sec) 
Heartbeat CPU 0 instructions: 8000000 cycles: 9151984 heartbeat IPC: 0.465043 cumulative IPC: 0.461473 (Simulation time: 0 hr 31 min 51 sec) 
Heartbeat CPU 0 instructions: 7000000 cycles: 9772637 heartbeat IPC: 0.289116 cumulative IPC: 0.302596 (Simulation time: 0 hr 31 min 50 sec) 
Heartbeat CPU 0 instructions: 10000000 cycles: 7102504 heartbeat IPC: 1.16571 cumulative IPC: 1.00032 (Simulation time: 0 hr 31 min 52 sec) 
Heartbeat CPU 0 instructions: 8000000 cycles: 8716416 heartbeat IPC: 0.492012 cumulative IPC: 0.530592 (Simulation time: 0 hr 31 min 54 sec) 
Heartbeat CPU 0 instructions: 10000003 cycles: 12924775 heartbeat IPC: 0.956256 cumulative IPC: 0.498464 (Simulation time: 0 hr 31 min 57 sec) 
Heartbeat CPU 0 instructions: 9000001 cycles: 8352416 heartbeat IPC: 0.659842 cumulative IPC: 0.619655 (Simulation time: 0 hr 32 min 5 sec) 
Heartbeat CPU 0 instructions: 7000000 cycles: 7226538 heartbeat IPC: 0.469421 cumulative IPC: 0.470421 (Simulation time: 0 hr 32 min 12 sec) 
Heartbeat CPU 0 instructions: 7000001 cycles: 6691557 heartbeat IPC: 0.551334 cumulative IPC: 0.550403 (Simulation time: 0 hr 32 min 14 sec) 
Heartbeat CPU 0 instructions: 8000000 cycles: 7233867 heartbeat IPC: 0.717198 cumulative IPC: 0.656768 (Simulation time: 0 hr 32 min 15 sec) 
Heartbeat CPU 0 instructions: 10000002 cycles: 17221571 heartbeat IPC: 0.34453 cumulative IPC: 0.329313 (Simulation time: 0 hr 32 min 16 sec) 
Heartbeat CPU 0 instructions: 10000000 cycles: 9316775 heartbeat IPC: 0.758868 cumulative IPC: 0.725545 (Simulation time: 0 hr 32 min 27 sec) 
Heartbeat CPU 0 instructions: 8000000 cycles: 8575927 heartbeat IPC: 0.514896 cumulative IPC: 0.514881 (Simulation time: 0 hr 32 min 31 sec) 
Heartbeat CPU 0 instructions: 7000001 cycles: 7182668 heartbeat IPC: 0.475194 cumulative IPC: 0.474049 (Simulation time: 0 hr 32 min 36 sec) 
Heartbeat CPU 0 instructions: 11000001 cycles: 17189357 heartbeat IPC: 0.500038 cumulative IPC: 0.384693 (Simulation time: 0 hr 32 min 45 sec) 
Heartbeat CPU 0 instructions: 9000000 cycles: 8358889 heartbeat IPC: 0.6601 cumulative IPC: 0.625198 (Simulation time: 0 hr 32 min 48 sec) 
Heartbeat CPU 0 instructions: 8000000 cycles: 6688502 heartbeat IPC: 0.723143 cumulative IPC: 0.724551 (Simulation time: 0 hr 32 min 50 sec) 
Heartbeat CPU 0 instructions: 10000003 cycles: 17555205 heartbeat IPC: 0.319036 cumulative IPC: 0.312923 (Simulation time: 0 hr 32 min 54 sec) 
Heartbeat CPU 0 instructions: 10000002 cycles: 6953507 heartbeat IPC: 1.08468 cumulative IPC: 1.07968 (Simulation time: 0 hr 33 min 6 sec) 
Heartbeat CPU 0 instructions: 10000002 cycles: 6393995 heartbeat IPC: 1.14692 cumulative IPC: 1.14766 (Simulation time: 0 hr 33 min 18 sec) 
Heartbeat CPU 0 instructions: 11000000 cycles: 15039637 heartbeat IPC: 0.43433 cumulative IPC: 0.448666 (Simulation time: 0 hr 33 min 27 sec) 
Heartbeat CPU 0 instructions: 9000001 cycles: 8369209 heartbeat IPC: 0.644205 cumulative IPC: 0.624305 (Simulation time: 0 hr 33 min 30 sec) 
Heartbeat CPU 0 instructions: 7000003 cycles: 12638401 heartbeat IPC: 0.196412 cumulative IPC: 0.206581 (Simulation time: 0 hr 33 min 36 sec) 
[...]
Heartbeat CPU 0 instructions: 53000001 cycles: 233761313 heartbeat IPC: 0.272862 cumulative IPC: 0.207729 (Simulation time: 3 hr 36 min 12 sec) 
Heartbeat CPU 0 instructions: 50000001 cycles: 193652621 heartbeat IPC: 0.227468 cumulative IPC: 0.235978 (Simulation time: 3 hr 36 min 18 sec) 
Heartbeat CPU 0 instructions: 51000000 cycles: 129148607 heartbeat IPC: 0.258942 cumulative IPC: 0.362236 (Simulation time: 3 hr 36 min 21 sec) 
Heartbeat CPU 0 instructions: 44000000 cycles: 344720150 heartbeat IPC: 0.0749712 cumulative IPC: 0.113954 (Simulation time: 3 hr 36 min 22 sec) 
Heartbeat CPU 0 instructions: 55000001 cycles: 123240277 heartbeat IPC: 0.528594 cumulative IPC: 0.415748 (Simulation time: 3 hr 36 min 26 sec) 
Finished CPU 0 instructions: 50000000 cycles: 120265244 cummulative IPC: 0.415748 (Simulation time: 3 hr 36 min 26 sec) 

ChampSim completed all CPUs

Region of Interest Statistics

CPU 0 cummulative IPC: 0.415748 instructions: 50000000 cycles: 120265244
LLC TOTAL     ACCESS:     585936  HIT:     139406  MISS:     446530
LLC LOAD      ACCESS:     317736  HIT:      63590  MISS:     254146
LLC RFO       ACCESS:     134057  HIT:      21031  MISS:     113026
LLC PREFETCH  ACCESS:          0  HIT:          0  MISS:          0
LLC WRITEBACK ACCESS:     134143  HIT:      54785  MISS:      79358
Heartbeat CPU 0 instructions: 52000000 cycles: 155719275 heartbeat IPC: 0.315924 cumulative IPC: 0.308083 (Simulation time: 3 hr 36 min 26 sec) 
Heartbeat CPU 0 instructions: 55000001 cycles: 126027579 heartbeat IPC: 0.544706 cumulative IPC: 0.406293 (Simulation time: 3 hr 36 min 31 sec) 
Finished CPU 0 instructions: 50000001 cycles: 123063879 cummulative IPC: 0.406293 (Simulation time: 3 hr 36 min 31 sec) 

ChampSim completed all CPUs

Region of Interest Statistics

CPU 0 cummulative IPC: 0.406293 instructions: 50000001 cycles: 123063879
LLC TOTAL     ACCESS:     585845  HIT:     147912  MISS:     437933
LLC LOAD      ACCESS:     317737  HIT:      64766  MISS:     252971
LLC RFO       ACCESS:     134054  HIT:      23538  MISS:     110516
LLC PREFETCH  ACCESS:          0  HIT:          0  MISS:          0
LLC WRITEBACK ACCESS:     134054  HIT:      59608  MISS:      74446
Heartbeat CPU 0 instructions: 46000002 cycles: 151903533 heartbeat IPC: 0.267849 cumulative IPC: 0.273822 (Simulation time: 3 hr 36 min 33 sec) 
Heartbeat CPU 0 instructions: 40000000 cycles: 429575822 heartbeat IPC: 0.0820915 cumulative IPC: 0.0819522 (Simulation time: 3 hr 36 min 35 sec) 
Heartbeat CPU 0 instructions: 47000002 cycles: 108942911 heartbeat IPC: 0.522047 cumulative IPC: 0.397034 (Simulation time: 3 hr 36 min 39 sec) 
Heartbeat CPU 0 instructions: 55000003 cycles: 129043136 heartbeat IPC: 0.388773 cumulative IPC: 0.396326 (Simulation time: 3 hr 36 min 40 sec) 
Finished CPU 0 instructions: 50000000 cycles: 126158830 cummulative IPC: 0.396326 (Simulation time: 3 hr 36 min 40 sec) 

ChampSim completed all CPUs

Region of Interest Statistics

CPU 0 cummulative IPC: 0.396326 instructions: 50000000 cycles: 126158830
LLC TOTAL     ACCESS:      74305  HIT:      56006  MISS:      18299
LLC LOAD      ACCESS:      49411  HIT:      36288  MISS:      13123
LLC RFO       ACCESS:       9235  HIT:       4059  MISS:       5176
LLC PREFETCH  ACCESS:          0  HIT:          0  MISS:          0
LLC WRITEBACK ACCESS:      15659  HIT:      15659  MISS:          0
Heartbeat CPU 0 instructions: 54000000 cycles: 237416346 heartbeat IPC: 0.273595 cumulative IPC: 0.208755 (Simulation time: 3 hr 36 min 42 sec) 
Heartbeat CPU 0 instructions: 54000000 cycles: 388997218 heartbeat IPC: 0.129714 cumulative IPC: 0.127042 (Simulation time: 3 hr 36 min 44 sec) 
Heartbeat CPU 0 instructions: 55000002 cycles: 119622109 heartbeat IPC: 0.287284 cumulative IPC: 0.428308 (Simulation time: 3 hr 36 min 45 sec) 
Finished CPU 0 instructions: 50000002 cycles: 116738520 cummulative IPC: 0.428308 (Simulation time: 3 hr 36 min 45 sec) 

ChampSim completed all CPUs

Region of Interest Statistics

CPU 0 cummulative IPC: 0.428308 instructions: 50000002 cycles: 116738520
LLC TOTAL     ACCESS:    1860294  HIT:     591149  MISS:    1269145
LLC LOAD      ACCESS:    1091618  HIT:     123542  MISS:     968076
LLC RFO       ACCESS:     126461  HIT:     115330  MISS:      11131
LLC PREFETCH  ACCESS:          0  HIT:          0  MISS:          0
LLC WRITEBACK ACCESS:     642215  HIT:     352277  MISS:     289938
Heartbeat CPU 0 instructions: 47000002 cycles: 496517682 heartbeat IPC: 0.0784743 cumulative IPC: 0.0850133 (Simulation time: 3 hr 36 min 49 sec) 
Heartbeat CPU 0 instructions: 51000003 cycles: 197706251 heartbeat IPC: 0.246693 cumulative IPC: 0.236201 (Simulation time: 3 hr 36 min 51 sec) 
Heartbeat CPU 0 instructions: 45000001 cycles: 352325819 heartbeat IPC: 0.131481 cumulative IPC: 0.114335 (Simulation time: 3 hr 36 min 55 sec) 
Heartbeat CPU 0 instructions: 52000000 cycles: 133009169 heartbeat IPC: 0.25903 cumulative IPC: 0.359191 (Simulation time: 3 hr 36 min 57 sec) 
Heartbeat CPU 0 instructions: 53000000 cycles: 159061109 heartbeat IPC: 0.299237 cumulative IPC: 0.307894 (Simulation time: 3 hr 37 min 0 sec) 
Heartbeat CPU 0 instructions: 48000000 cycles: 110863305 heartbeat IPC: 0.520725 cumulative IPC: 0.39924 (Simulation time: 3 hr 37 min 1 sec) 
Heartbeat CPU 0 instructions: 55000000 cycles: 241086234 heartbeat IPC: 0.272488 cumulative IPC: 0.209736 (Simulation time: 3 hr 37 min 6 sec) 
Finished CPU 0 instructions: 50000000 cycles: 238395193 cummulative IPC: 0.209736 (Simulation time: 3 hr 37 min 6 sec) 

ChampSim completed all CPUs

Region of Interest Statistics

CPU 0 cummulative IPC: 0.209736 instructions: 50000000 cycles: 238395193
LLC TOTAL     ACCESS:    2080423  HIT:     324478  MISS:    1755945
LLC LOAD      ACCESS:    1001596  HIT:     147364  MISS:     854232
LLC RFO       ACCESS:     447143  HIT:      44596  MISS:     402547
LLC PREFETCH  ACCESS:          0  HIT:          0  MISS:          0
LLC WRITEBACK ACCESS:     631684  HIT:     132518  MISS:     499166
Heartbeat CPU 0 instructions: 55000001 cycles: 396975360 heartbeat IPC: 0.125343 cumulative IPC: 0.127008 (Simulation time: 3 hr 37 min 10 sec) 
Finished CPU 0 instructions: 50000000 cycles: 393677346 cummulative IPC: 0.127008 (Simulation time: 3 hr 37 min 10 sec) 

ChampSim completed all CPUs

Region of Interest Statistics

CPU 0 cummulative IPC: 0.127008 instructions: 50000000 cycles: 393677346
LLC TOTAL     ACCESS:    4073916  HIT:    1576062  MISS:    2497854
LLC LOAD      ACCESS:    1208958  HIT:     309387  MISS:     899571
LLC RFO       ACCESS:    1207738  HIT:     500381  MISS:     707357
LLC PREFETCH  ACCESS:          0  HIT:          0  MISS:          0
LLC WRITEBACK ACCESS:    1657220  HIT:     766294  MISS:     890926
Heartbeat CPU 0 instructions: 41000000 cycles: 441594004 heartbeat IPC: 0.0832073 cumulative IPC: 0.0819866 (Simulation time: 3 hr 37 min 10 sec) 
Heartbeat CPU 0 instructions: 47000000 cycles: 156382182 heartbeat IPC: 0.223281 cumulative IPC: 0.272354 (Simulation time: 3 hr 37 min 13 sec) 
Heartbeat CPU 0 instructions: 48000000 cycles: 504280921 heartbeat IPC: 0.128812 cumulative IPC: 0.0856909 (Simulation time: 3 hr 37 min 15 sec) 
Heartbeat CPU 0 instructions: 46000001 cycles: 357366166 heartbeat IPC: 0.198399 cumulative IPC: 0.115529 (Simulation time: 3 hr 37 min 18 sec) 
Heartbeat CPU 0 instructions: 49000000 cycles: 113237584 heartbeat IPC: 0.42118 cumulative IPC: 0.399713 (Simulation time: 3 hr 37 min 21 sec) 
Heartbeat CPU 0 instructions: 52000000 cycles: 202094531 heartbeat IPC: 0.227879 cumulative IPC: 0.236018 (Simulation time: 3 hr 37 min 21 sec) 
Heartbeat CPU 0 instructions: 54000000 cycles: 162286439 heartbeat IPC: 0.310046 cumulative IPC: 0.307937 (Simulation time: 3 hr 37 min 25 sec) 
Heartbeat CPU 0 instructions: 53000000 cycles: 136921199 heartbeat IPC: 0.255622 cumulative IPC: 0.356184 (Simulation time: 3 hr 37 min 26 sec) 
Heartbeat CPU 0 instructions: 42000000 cycles: 453628083 heartbeat IPC: 0.0830973 cumulative IPC: 0.0820162 (Simulation time: 3 hr 37 min 33 sec) 
Heartbeat CPU 0 instructions: 48000000 cycles: 159862937 heartbeat IPC: 0.287294 cumulative IPC: 0.272684 (Simulation time: 3 hr 37 min 36 sec) 
Heartbeat CPU 0 instructions: 50000002 cycles: 115108958 heartbeat IPC: 0.534368 cumulative IPC: 0.401964 (Simulation time: 3 hr 37 min 36 sec) 
Heartbeat CPU 0 instructions: 49000003 cycles: 515192739 heartbeat IPC: 0.091644 cumulative IPC: 0.0858176 (Simulation time: 3 hr 37 min 40 sec) 
Heartbeat CPU 0 instructions: 47000002 cycles: 367155162 heartbeat IPC: 0.102156 cumulative IPC: 0.11517 (Simulation time: 3 hr 37 min 42 sec) 
Heartbeat CPU 0 instructions: 53000000 cycles: 207116763 heartbeat IPC: 0.199115 cumulative IPC: 0.23511 (Simulation time: 3 hr 37 min 45 sec) 
Heartbeat CPU 0 instructions: 54000001 cycles: 139498727 heartbeat IPC: 0.387969 cumulative IPC: 0.356781 (Simulation time: 3 hr 37 min 47 sec) 
Heartbeat CPU 0 instructions: 55000002 cycles: 165415025 heartbeat IPC: 0.319634 cumulative IPC: 0.308163 (Simulation time: 3 hr 37 min 49 sec) 
Finished CPU 0 instructions: 50000001 cycles: 162251851 cummulative IPC: 0.308163 (Simulation time: 3 hr 37 min 49 sec) 

ChampSim completed all CPUs

Region of Interest Statistics

CPU 0 cummulative IPC: 0.308163 instructions: 50000001 cycles: 162251851
LLC TOTAL     ACCESS:    2633442  HIT:     263319  MISS:    2370123
LLC LOAD      ACCESS:    1915756  HIT:     260262  MISS:    1655494
LLC RFO       ACCESS:          0  HIT:          0  MISS:          0
LLC PREFETCH  ACCESS:          0  HIT:          0  MISS:          0
LLC WRITEBACK ACCESS:     717686  HIT:       3057  MISS:     714629
Heartbeat CPU 0 instructions: 51000000 cycles: 117040151 heartbeat IPC: 0.517814 cumulative IPC: 0.403928 (Simulation time: 3 hr 37 min 50 sec) 
Heartbeat CPU 0 instructions: 49000001 cycles: 162484161 heartbeat IPC: 0.381502 cumulative IPC: 0.274463 (Simulation time: 3 hr 37 min 54 sec) 
Heartbeat CPU 0 instructions: 43000000 cycles: 465726535 heartbeat IPC: 0.0826552 cumulative IPC: 0.0820329 (Simulation time: 3 hr 37 min 57 sec) 
Heartbeat CPU 0 instructions: 52000000 cycles: 118955105 heartbeat IPC: 0.522206 cumulative IPC: 0.405884 (Simulation time: 3 hr 38 min 2 sec) 
Heartbeat CPU 0 instructions: 54000002 cycles: 211714911 heartbeat IPC: 0.217479 cumulative IPC: 0.234722 (Simulation time: 3 hr 38 min 4 sec) 
Heartbeat CPU 0 instructions: 55000002 cycles: 142026703 heartbeat IPC: 0.395574 cumulative IPC: 0.357482 (Simulation time: 3 hr 38 min 6 sec) 
Finished CPU 0 instructions: 50000001 cycles: 139867187 cummulative IPC: 0.357482 (Simulation time: 3 hr 38 min 6 sec) 

ChampSim completed all CPUs

Region of Interest Statistics

CPU 0 cummulative IPC: 0.357482 instructions: 50000001 cycles: 139867187
LLC TOTAL     ACCESS:    1605001  HIT:     723307  MISS:     881694
LLC LOAD      ACCESS:    1395760  HIT:     524305  MISS:     871455
LLC RFO       ACCESS:      12669  HIT:       2798  MISS:       9871
LLC PREFETCH  ACCESS:          0  HIT:          0  MISS:          0
LLC WRITEBACK ACCESS:     196572  HIT:     196204  MISS:        368
Heartbeat CPU 0 instructions: 50000000 cycles: 528024853 heartbeat IPC: 0.0779293 cumulative IPC: 0.085625 (Simulation time: 3 hr 38 min 6 sec) 
Heartbeat CPU 0 instructions: 48000000 cycles: 378508016 heartbeat IPC: 0.0880834 cumulative IPC: 0.114352 (Simulation time: 3 hr 38 min 6 sec) 
Heartbeat CPU 0 instructions: 50000002 cycles: 166957449 heartbeat IPC: 0.223549 cumulative IPC: 0.273081 (Simulation time: 3 hr 38 min 14 sec) 
Heartbeat CPU 0 instructions: 53000002 cycles: 120907677 heartbeat IPC: 0.512146 cumulative IPC: 0.407646 (Simulation time: 3 hr 38 min 15 sec) 
Heartbeat CPU 0 instructions: 44000000 cycles: 477853725 heartbeat IPC: 0.0824593 cumulative IPC: 0.0820438 (Simulation time: 3 hr 38 min 18 sec) 
Heartbeat CPU 0 instructions: 49000000 cycles: 383834783 heartbeat IPC: 0.187731 cumulative IPC: 0.115377 (Simulation time: 3 hr 38 min 20 sec) 
Heartbeat CPU 0 instructions: 55000001 cycles: 215984551 heartbeat IPC: 0.234212 cumulative IPC: 0.234711 (Simulation time: 3 hr 38 min 20 sec) 
Finished CPU 0 instructions: 50000001 cycles: 213027573 cummulative IPC: 0.234711 (Simulation time: 3 hr 38 min 20 sec) 

ChampSim completed all CPUs

Region of Interest Statistics

CPU 0 cummulative IPC: 0.234711 instructions: 50000001 cycles: 213027573
LLC TOTAL     ACCESS:    1600876  HIT:     466911  MISS:    1133965
LLC LOAD      ACCESS:     959886  HIT:     235072  MISS:     724814
LLC RFO       ACCESS:     162910  HIT:      43512  MISS:     119398
LLC PREFETCH  ACCESS:          0  HIT:          0  MISS:          0
LLC WRITEBACK ACCESS:     478080  HIT:     188327  MISS:     289753
Heartbeat CPU 0 instructions: 51000000 cycles: 535479938 heartbeat IPC: 0.134137 cumulative IPC: 0.0863036 (Simulation time: 3 hr 38 min 22 sec) 
Heartbeat CPU 0 instructions: 51000003 cycles: 169979027 heartbeat IPC: 0.330953 cumulative IPC: 0.274123 (Simulation time: 3 hr 38 min 27 sec) 
Heartbeat CPU 0 instructions: 54000000 cycles: 123839738 heartbeat IPC: 0.341056 cumulative IPC: 0.406029 (Simulation time: 3 hr 38 min 26 sec) 
Heartbeat CPU 0 instructions: 50000001 cycles: 390759042 heartbeat IPC: 0.14442 cumulative IPC: 0.115895 (Simulation time: 3 hr 38 min 35 sec) 
Heartbeat CPU 0 instructions: 52000000 cycles: 171446628 heartbeat IPC: 0.681382 cumulative IPC: 0.277654 (Simulation time: 3 hr 38 min 35 sec) 
Heartbeat CPU 0 instructions: 45000001 cycles: 489921012 heartbeat IPC: 0.0828687 cumulative IPC: 0.0820642 (Simulation time: 3 hr 38 min 36 sec) 
Heartbeat CPU 0 instructions: 55000000 cycles: 126354874 heartbeat IPC: 0.397593 cumulative IPC: 0.405856 (Simulation time: 3 hr 38 min 37 sec) 
Finished CPU 0 instructions: 50000000 cycles: 123196289 cummulative IPC: 0.405856 (Simulation time: 3 hr 38 min 37 sec) 

ChampSim completed all CPUs

Region of Interest Statistics

CPU 0 cummulative IPC: 0.405856 instructions: 50000000 cycles: 123196289
LLC TOTAL     ACCESS:     281706  HIT:     268076  MISS:      13630
LLC LOAD      ACCESS:     200385  HIT:     190850  MISS:       9535
LLC RFO       ACCESS:      23672  HIT:      19676  MISS:       3996
LLC PREFETCH  ACCESS:          0  HIT:          0  MISS:          0
LLC WRITEBACK ACCESS:      57649  HIT:      57550  MISS:         99
Heartbeat CPU 0 instructions: 52000000 cycles: 545782961 heartbeat IPC: 0.0970589 cumulative IPC: 0.0865075 (Simulation time: 3 hr 38 min 39 sec) 
Heartbeat CPU 0 instructions: 53000003 cycles: 175015776 heartbeat IPC: 0.28018 cumulative IPC: 0.277706 (Simulation time: 3 hr 38 min 46 sec) 
Heartbeat CPU 0 instructions: 46000000 cycles: 501971846 heartbeat IPC: 0.0829817 cumulative IPC: 0.0820863 (Simulation time: 3 hr 38 min 50 sec) 
Heartbeat CPU 0 instructions: 51000001 cycles: 404896771 heartbeat IPC: 0.0707327 cumulative IPC: 0.114308 (Simulation time: 3 hr 38 min 51 sec) 
Heartbeat CPU 0 instructions: 53000000 cycles: 559480034 heartbeat IPC: 0.0730083 cumulative IPC: 0.0861756 (Simulation time: 3 hr 38 min 51 sec) 
Heartbeat CPU 0 instructions: 54000000 cycles: 179449210 heartbeat IPC: 0.225558 cumulative IPC: 0.276402 (Simulation time: 3 hr 38 min 56 sec) 
Heartbeat CPU 0 instructions: 54000000 cycles: 567198104 heartbeat IPC: 0.129566 cumulative IPC: 0.0867686 (Simulation time: 3 hr 38 min 59 sec) 
Heartbeat CPU 0 instructions: 52000000 cycles: 410103129 heartbeat IPC: 0.192073 cumulative IPC: 0.115302 (Simulation time: 3 hr 39 min 0 sec) 
Heartbeat CPU 0 instructions: 47000002 cycles: 513984770 heartbeat IPC: 0.0832438 cumulative IPC: 0.0821135 (Simulation time: 3 hr 39 min 1 sec) 
Heartbeat CPU 0 instructions: 55000001 cycles: 183459591 heartbeat IPC: 0.249353 cumulative IPC: 0.275803 (Simulation time: 3 hr 39 min 5 sec) 
Finished CPU 0 instructions: 50000000 cycles: 181288510 cummulative IPC: 0.275803 (Simulation time: 3 hr 39 min 5 sec) 

ChampSim completed all CPUs

Region of Interest Statistics

CPU 0 cummulative IPC: 0.275803 instructions: 50000000 cycles: 181288510
LLC TOTAL     ACCESS:    3552114  HIT:    1730070  MISS:    1822044
LLC LOAD      ACCESS:    2008923  HIT:     785390  MISS:    1223533
LLC RFO       ACCESS:     460288  HIT:     162087  MISS:     298201
LLC PREFETCH  ACCESS:          0  HIT:          0  MISS:          0
LLC WRITEBACK ACCESS:    1082903  HIT:     782593  MISS:     300310
Heartbeat CPU 0 instructions: 55000000 cycles: 576293799 heartbeat IPC: 0.109942 cumulative IPC: 0.0871359 (Simulation time: 3 hr 39 min 8 sec) 
Finished CPU 0 instructions: 50000003 cycles: 573816206 cummulative IPC: 0.0871359 (Simulation time: 3 hr 39 min 8 sec) 

ChampSim completed all CPUs

Region of Interest Statistics

CPU 0 cummulative IPC: 0.0871359 instructions: 50000003 cycles: 573816206
LLC TOTAL     ACCESS:    6474155  HIT:    3193313  MISS:    3280842
LLC LOAD      ACCESS:    5697311  HIT:    2710538  MISS:    2986773
LLC RFO       ACCESS:      65890  HIT:      41365  MISS:      24525
LLC PREFETCH  ACCESS:          0  HIT:          0  MISS:          0
LLC WRITEBACK ACCESS:     710954  HIT:     441410  MISS:     269544
Heartbeat CPU 0 instructions: 53000000 cycles: 415116213 heartbeat IPC: 0.199478 cumulative IPC: 0.116324 (Simulation time: 3 hr 39 min 8 sec) 
Heartbeat CPU 0 instructions: 48000000 cycles: 525712810 heartbeat IPC: 0.0852656 cumulative IPC: 0.0821842 (Simulation time: 3 hr 39 min 10 sec) 
Heartbeat CPU 0 instructions: 49000000 cycles: 537858794 heartbeat IPC: 0.0823317 cumulative IPC: 0.0821875 (Simulation time: 3 hr 39 min 17 sec) 
Heartbeat CPU 0 instructions: 54000001 cycles: 430417487 heartbeat IPC: 0.0653541 cumulative IPC: 0.114502 (Simulation time: 3 hr 39 min 17 sec) 
Heartbeat CPU 0 instructions: 55000002 cycles: 435976172 heartbeat IPC: 0.179899 cumulative IPC: 0.11534 (Simulation time: 3 hr 39 min 23 sec) 
Finished CPU 0 instructions: 50000001 cycles: 433499928 cummulative IPC: 0.11534 (Simulation time: 3 hr 39 min 23 sec) 

ChampSim completed all CPUs

Region of Interest Statistics

CPU 0 cummulative IPC: 0.11534 instructions: 50000001 cycles: 433499928
LLC TOTAL     ACCESS:    5613646  HIT:    2467116  MISS:    3146530
LLC LOAD      ACCESS:    4493002  HIT:    1828804  MISS:    2664198
LLC RFO       ACCESS:      98842  HIT:      72566  MISS:      26276
LLC PREFETCH  ACCESS:          0  HIT:          0  MISS:          0
LLC WRITEBACK ACCESS:    1021802  HIT:     565746  MISS:     456056
Heartbeat CPU 0 instructions: 50000002 cycles: 549970146 heartbeat IPC: 0.0825673 cumulative IPC: 0.0821959 (Simulation time: 3 hr 39 min 24 sec) 
Heartbeat CPU 0 instructions: 51000002 cycles: 562057423 heartbeat IPC: 0.0827316 cumulative IPC: 0.0822075 (Simulation time: 3 hr 39 min 30 sec) 
Heartbeat CPU 0 instructions: 52000000 cycles: 574078746 heartbeat IPC: 0.0831854 cumulative IPC: 0.0822281 (Simulation time: 3 hr 39 min 37 sec) 
Heartbeat CPU 0 instructions: 53000000 cycles: 586222359 heartbeat IPC: 0.0823478 cumulative IPC: 0.0822306 (Simulation time: 3 hr 39 min 44 sec) 
Heartbeat CPU 0 instructions: 54000000 cycles: 598228981 heartbeat IPC: 0.0832874 cumulative IPC: 0.0822519 (Simulation time: 3 hr 39 min 51 sec) 
Heartbeat CPU 0 instructions: 55000000 cycles: 610277876 heartbeat IPC: 0.0829952 cumulative IPC: 0.0822666 (Simulation time: 3 hr 39 min 57 sec) 
Finished CPU 0 instructions: 50000000 cycles: 607780059 cummulative IPC: 0.0822666 (Simulation time: 3 hr 39 min 57 sec) 

ChampSim completed all CPUs

Region of Interest Statistics

CPU 0 cummulative IPC: 0.0822666 instructions: 50000000 cycles: 607780059
LLC TOTAL     ACCESS:    7409423  HIT:    3942147  MISS:    3467276
LLC LOAD      ACCESS:    7242653  HIT:    3837218  MISS:    3405435
LLC RFO       ACCESS:      12947  HIT:       8786  MISS:       4161
LLC PREFETCH  ACCESS:          0  HIT:          0  MISS:          0
LLC WRITEBACK ACCESS:     153823  HIT:      96143  MISS:      57680
