
*** ChampSim Multicore Out-of-Order Simulator ***

Warmup Instructions: 5000000
Simulation Instructions: 50000000
Configuration: 1
Number of CPUs: 1
LLC sets: 2048
LLC ways: 16
Off-chip DRAM Channels: 1 Width: 64-bit Data Rate: 1600 MT/s


*** ChampSim Multicore Out-of-Order Simulator ***

Warmup Instructions: 5000000
Simulation Instructions: 50000000

Configuration: 1
Number of CPUs: 1
LLC sets: 2048
LLC ways: 16
*** ChampSim Multicore Out-of-Order Simulator ***

Off-chip DRAM Channels: 1 Width: 64-bit Data Rate: 1600 MT/s

Warmup Instructions: 5000000
Simulation Instructions: 50000000
Configuration: 1
Number of CPUs: 1
LLC sets: 2048
LLC ways: 16
Off-chip DRAM Channels: 1 Width: 64-bit Data Rate: 1600 MT/s


*** ChampSim Multicore Out-of-Order Simulator ***


Warmup Instructions: 5000000
Simulation Instructions: 50000000
Configuration: 1
*** ChampSim Multicore Out-of-Order Simulator ***
Number of CPUs: 1

LLC sets: 2048
LLC ways: 16


Warmup Instructions: 5000000
*** ChampSim Multicore Out-of-Order Simulator ***

Off-chip DRAM Channels: 1 Width: 64-bit Data Rate: 1600 MT/s

Simulation Instructions: 50000000
Warmup Instructions: 5000000
Simulation Instructions: 50000000
Configuration: 1
Configuration: 1
Number of CPUs: 1
LLC sets: 2048
LLC ways: 16


*** ChampSim Multicore Out-of-Order Simulator ***

*** ChampSim Multicore Out-of-Order Simulator ***


Warmup Instructions: 5000000
Simulation Instructions: 50000000
Configuration: 1
Number of CPUs: 1
LLC sets: 2048
LLC ways: 16
*** ChampSim Multicore Out-of-Order Simulator ***

Number of CPUs: 1
Off-chip DRAM Channels: 1 Width: 64-bit Data Rate: 1600 MT/s



*** ChampSim Multicore Out-of-Order Simulator ***
*** ChampSim Multicore Out-of-Order Simulator ***


Warmup Instructions: 5000000
Warmup Instructions: 5000000
Simulation Instructions: 50000000
Warmup Instructions: 5000000
Simulation Instructions: 50000000
Configuration: 1
Simulation Instructions: 50000000
Configuration: 1
Number of CPUs: 1
Configuration: 1
Number of CPUs: 1
LLC sets: 2048
Number of CPUs: 1
LLC sets: 2048
LLC sets: 2048
LLC ways: 16
Off-chip DRAM Channels: 1 Width: 64-bit Data Rate: 1600 MT/s

LLC ways: 16
LLC ways: 16

Off-chip DRAM Channels: 1 Width: 64-bit Data Rate: 1600 MT/s

Off-chip DRAM Channels: 1 Width: 64-bit Data Rate: 1600 MT/s

*** ChampSim Multicore Out-of-Order Simulator ***

Warmup Instructions: 5000000
Simulation Instructions: 50000000
Configuration: 1
Number of CPUs: 1
LLC sets: 2048
LLC ways: 16
Off-chip DRAM Channels: 1 Width: 64-bit Data Rate: 1600 MT/s


*** ChampSim Multicore Out-of-Order Simulator ***

Warmup Instructions: 5000000
Simulation Instructions: 50000000
Configuration: 1
Number of CPUs: 1
LLC sets: 2048
LLC ways: 16

Off-chip DRAM Channels: 1 Width: 64-bit Data Rate: 1600 MT/s

Off-chip DRAM Channels: 1 Width: 64-bit Data Rate: 1600 MT/s

Warmup Instructions: 5000000
Simulation Instructions: 50000000
Configuration: 1
Number of CPUs: 1
LLC sets: 2048
LLC ways: 16
LLC sets: 2048
Off-chip DRAM Channels: 1 Width: 64-bit Data Rate: 1600 MT/s


*** ChampSim Multicore Out-of-Order Simulator ***

Warmup Instructions: 5000000
Simulation Instructions: 50000000
Configuration: 1
Number of CPUs: 1
LLC sets: 2048
LLC ways: 16

*** ChampSim Multicore Out-of-Order Simulator ***
*** ChampSim Multicore Out-of-Order Simulator ***


Warmup Instructions: 5000000
Simulation Instructions: 50000000
Configuration: 1
Number of CPUs: 1
Warmup Instructions: 5000000
LLC sets: 2048
LLC ways: 16
Simulation Instructions: 50000000
Configuration: 1

*** ChampSim Multicore Out-of-Order Simulator ***
*** ChampSim Multicore Out-of-Order Simulator ***


Warmup Instructions: 5000000
Simulation Instructions: 50000000
Configuration: 1
Number of CPUs: 1
LLC sets: 2048
LLC ways: 16
Warmup Instructions: 5000000

Simulation Instructions: 50000000
Off-chip DRAM Channels: 1 Width: 64-bit Data Rate: 1600 MT/s

Configuration: 1
*** ChampSim Multicore Out-of-Order Simulator ***

Number of CPUs: 1
LLC sets: 2048
LLC ways: 16

Warmup Instructions: 5000000
Simulation Instructions: 50000000
Off-chip DRAM Channels: 1 Width: 64-bit Data Rate: 1600 MT/s

Configuration: 1
*** ChampSim Multicore Out-of-Order Simulator ***
Number of CPUs: 1

LLC sets: 2048
LLC ways: 16
Off-chip DRAM Channels: 1 Width: 64-bit Data Rate: 1600 MT/s

Warmup Instructions: 5000000
Simulation Instructions: 50000000
Configuration: 1
Number of CPUs: 1
LLC sets: 2048
LLC ways: 16
Off-chip DRAM Channels: 1 Width: 64-bit Data Rate: 1600 MT/s


*** ChampSim Multicore Out-of-Order Simulator ***

Warmup Instructions: 5000000
Simulation Instructions: 50000000
Configuration: 1
Number of CPUs: 1
LLC sets: 2048
LLC ways: 16
Off-chip DRAM Channels: 1 Width: 64-bit Data Rate: 1600 MT/s

LLC ways: 16
Off-chip DRAM Channels: 1 Width: 64-bit Data Rate: 1600 MT/s


*** ChampSim Multicore Out-of-Order Simulator ***

Off-chip DRAM Channels: 1 Width: 64-bit Data Rate: 1600 MT/s

Warmup Instructions: 5000000
Simulation Instructions: 50000000
Configuration: 1
Number of CPUs: 1
LLC sets: 2048
LLC ways: 16
Off-chip DRAM Channels: 1 Width: 64-bit Data Rate: 1600 MT/s

Off-chip DRAM Channels: 1 Width: 64-bit Data Rate: 1600 MT/s

Number of CPUs: 1
LLC sets: 2048
LLC ways: 16

Off-chip DRAM Channels: 1 Width: 64-bit Data Rate: 1600 MT/s

*** ChampSim Multicore Out-of-Order Simulator ***


*** ChampSim Multicore Out-of-Order Simulator ***

Warmup Instructions: 5000000
Simulation Instructions: 50000000
Configuration: 1
Number of CPUs: 1
LLC sets: 2048
LLC ways: 16
Off-chip DRAM Channels: 1 Width: 64-bit Data Rate: 1600 MT/s

Warmup Instructions: 5000000
Simulation Instructions: 50000000
Configuration: 1
Number of CPUs: 1
LLC sets: 2048
LLC ways: 16
Off-chip DRAM Channels: 1 Width: 64-bit Data Rate: 1600 MT/s


*** ChampSim Multicore Out-of-Order Simulator ***

Warmup Instructions: 5000000
Simulation Instructions: 50000000
Configuration: 1
Number of CPUs: 1
LLC sets: 2048
LLC ways: 16
Off-chip DRAM Channels: 1 Width: 64-bit Data Rate: 1600 MT/s


*** ChampSim Multicore Out-of-Order Simulator ***

Warmup Instructions: 5000000
Simulation Instructions: 50000000
Configuration: 1
Number of CPUs: 1
LLC sets: 2048
LLC ways: 16
Off-chip DRAM Channels: 1 Width: 64-bit Data Rate: 1600 MT/s


*** ChampSim Multicore Out-of-Order Simulator ***

Warmup Instructions: 5000000
Simulation Instructions: 50000000
Configuration: 1
Number of CPUs: 1
LLC sets: 2048
LLC ways: 16
Off-chip DRAM Channels: 1 Width: 64-bit Data Rate: 1600 MT/s


*** ChampSim Multicore Out-of-Order Simulator ***

Warmup Instructions: 5000000
Simulation Instructions: 50000000
Configuration: 1
Number of CPUs: 1
LLC sets: 2048
LLC ways: 16
Off-chip DRAM Channels: 1 Width: 64-bit Data Rate: 1600 MT/s


*** ChampSim Multicore Out-of-Order Simulator ***

Warmup Instructions: 5000000
Simulation Instructions: 50000000
Configuration: 1
Number of CPUs: 1
LLC sets: 2048
LLC ways: 16
Off-chip DRAM Channels: 1 Width: 64-bit Data Rate: 1600 MT/s


*** ChampSim Multicore Out-of-Order Simulator ***


Warmup Instructions: 5000000
Simulation Instructions: 50000000
*** ChampSim Multicore Out-of-Order Simulator ***
Configuration: 1

Number of CPUs: 1
LLC sets: 2048
LLC ways: 16
Warmup Instructions: 5000000
Off-chip DRAM Channels: 1 Width: 64-bit Data Rate: 1600 MT/s

Simulation Instructions: 50000000
Configuration: 1
Number of CPUs: 1
LLC sets: 2048
LLC ways: 16
Off-chip DRAM Channels: 1 Width: 64-bit Data Rate: 1600 MT/s


*** ChampSim Multicore Out-of-Order Simulator ***

Warmup Instructions: 5000000
Simulation Instructions: 50000000
Configuration: 1
Number of CPUs: 1
LLC sets: 2048
LLC ways: 16
Off-chip DRAM Channels: 1 Width: 64-bit Data Rate: 1600 MT/s


*** ChampSim Multicore Out-of-Order Simulator ***

Warmup Instructions: 5000000
Simulation Instructions: 50000000
Configuration: 1
Number of CPUs: 1
LLC sets: 2048
LLC ways: 16
Off-chip DRAM Channels: 1 Width: 64-bit Data Rate: 1600 MT/s


*** ChampSim Multicore Out-of-Order Simulator ***

Warmup Instructions: 5000000
Simulation Instructions: 50000000
Configuration: 1
Number of CPUs: 1
LLC sets: 2048
LLC ways: 16
Off-chip DRAM Channels: 1 Width: 64-bit Data Rate: 1600 MT/s


*** ChampSim Multicore Out-of-Order Simulator ***

Warmup Instructions: 5000000
Simulation Instructions: 50000000
Configuration: 1
Number of CPUs: 1
LLC sets: 2048
LLC ways: 16
Off-chip DRAM Channels: 1 Width: 64-bit Data Rate: 1600 MT/s


*** ChampSim Multicore Out-of-Order Simulator ***

Warmup Instructions: 5000000
Simulation Instructions: 50000000
Configuration: 1
Number of CPUs: 1
LLC sets: 2048
LLC ways: 16
Off-chip DRAM Channels: 1 Width: 64-bit Data Rate: 1600 MT/s



*** ChampSim Multicore Out-of-Order Simulator ***

Warmup Instructions: 5000000
Simulation Instructions: 50000000
Configuration: 1
*** ChampSim Multicore Out-of-Order Simulator ***
Number of CPUs: 1
LLC sets: 2048
LLC ways: 16

Off-chip DRAM Channels: 1 Width: 64-bit Data Rate: 1600 MT/s


*** ChampSim Multicore Out-of-Order Simulator ***

Warmup Instructions: 5000000
Simulation Instructions: 50000000
Configuration: 1
Number of CPUs: 1
LLC sets: 2048
LLC ways: 16
Off-chip DRAM Channels: 1 Width: 64-bit Data Rate: 1600 MT/s

Warmup Instructions: 5000000
Simulation Instructions: 50000000
Configuration: 1
Number of CPUs: 1
LLC sets: 2048
LLC ways: 16
Off-chip DRAM Channels: 1 Width: 64-bit Data Rate: 1600 MT/s


*** ChampSim Multicore Out-of-Order Simulator ***

Warmup Instructions: 5000000
Simulation Instructions: 50000000
Configuration: 1
Number of CPUs: 1
LLC sets: 2048
LLC ways: 16
Off-chip DRAM Channels: 1 Width: 64-bit Data Rate: 1600 MT/s


*** ChampSim Multicore Out-of-Order Simulator ***

Warmup Instructions: 5000000
Simulation Instructions: 50000000
Configuration: 1
Number of CPUs: 1
LLC sets: 2048
LLC ways: 16
Off-chip DRAM Channels: 1 Width: 64-bit Data Rate: 1600 MT/s


*** ChampSim Multicore Out-of-Order Simulator ***

Warmup Instructions: 5000000
Simulation Instructions: 50000000
Configuration: 1
Number of CPUs: 1
LLC sets: 2048
LLC ways: 16
Off-chip DRAM Channels: 1 Width: 64-bit Data Rate: 1600 MT/s


*** ChampSim Multicore Out-of-Order Simulator ***

Warmup Instructions: 5000000
Simulation Instructions: 50000000
Configuration: 1
Number of CPUs: 1
LLC sets: 2048
LLC ways: 16
Off-chip DRAM Channels: 1 Width: 64-bit Data Rate: 1600 MT/s


*** ChampSim Multicore Out-of-Order Simulator ***

Warmup Instructions: 5000000
Simulation Instructions: 50000000
Configuration: 1
Number of CPUs: 1
LLC sets: 2048
LLC ways: 16
Off-chip DRAM Channels: 1 Width: 64-bit Data Rate: 1600 MT/s


*** ChampSim Multicore Out-of-Order Simulator ***

Warmup Instructions: 5000000
Simulation Instructions: 50000000
Configuration: 1
Number of CPUs: 1
LLC sets: 2048
LLC ways: 16
Off-chip DRAM Channels: 1 Width: 64-bit Data Rate: 1600 MT/s


*** ChampSim Multicore Out-of-Order Simulator ***

Warmup Instructions: 5000000
Simulation Instructions: 50000000
Configuration: 1
Number of CPUs: 1
LLC sets: 2048
LLC ways: 16
Off-chip DRAM Channels: 1 Width: 64-bit Data Rate: 1600 MT/s


*** ChampSim Multicore Out-of-Order Simulator ***

Warmup Instructions: 5000000
Simulation Instructions: 50000000
Configuration: 1
Number of CPUs: 1
LLC sets: 2048
LLC ways: 16
Off-chip DRAM Channels: 1 Width: 64-bit Data Rate: 1600 MT/s


*** ChampSim Multicore Out-of-Order Simulator ***

Warmup Instructions: 5000000
Simulation Instructions: 50000000
Configuration: 1
Number of CPUs: 1
LLC sets: 2048
LLC ways: 16
Off-chip DRAM Channels: 1 Width: 64-bit Data Rate: 1600 MT/s


*** ChampSim Multicore Out-of-Order Simulator ***

Warmup Instructions: 5000000
Simulation Instructions: 50000000
Configuration: 1
Number of CPUs: 1
LLC sets: 2048
LLC ways: 16
Off-chip DRAM Channels: 1 Width: 64-bit Data Rate: 1600 MT/s


*** ChampSim Multicore Out-of-Order Simulator ***

Warmup Instructions: 5000000
Simulation Instructions: 50000000
Configuration: 1
Number of CPUs: 1
LLC sets: 2048
LLC ways: 16
Off-chip DRAM Channels: 1 Width: 64-bit Data Rate: 1600 MT/s


*** ChampSim Multicore Out-of-Order Simulator ***

Warmup Instructions: 5000000
Simulation Instructions: 50000000
Configuration: 1
Number of CPUs: 1
LLC sets: 2048
LLC ways: 16
Off-chip DRAM Channels: 1 Width: 64-bit Data Rate: 1600 MT/s

CPU 0 runs /datasets/cs240c-wi22-a00-public/data/Assignment2-gz/libquantum_964B.trace.gz
Heartbeat CPU 0 instructions: 1000001 cycles: 333344 heartbeat IPC: 2.99991 cumulative IPC: 2.99991 (Simulation time: 0 hr 2 min 19 sec) 
CPU 0 runs /datasets/cs240c-wi22-a00-public/data/Assignment2-gz/libquantum_1735B.trace.gz
Heartbeat CPU 0 instructions: 1000003 cycles: 333345 heartbeat IPC: 2.9999 cumulative IPC: 2.9999 (Simulation time: 0 hr 2 min 19 sec) 
CPU 0 runs /datasets/cs240c-wi22-a00-public/data/Assignment2-gz/libquantum_1210B.trace.gz
Heartbeat CPU 0 instructions: 1000003 cycles: 314916 heartbeat IPC: 3.17546 cumulative IPC: 3.17546 (Simulation time: 0 hr 2 min 20 sec) 
CPU 0 runs /datasets/cs240c-wi22-a00-public/data/Assignment2-gz/calculix_2670B.trace.gz
Heartbeat CPU 0 instructions: 1000003 cycles: 520140 heartbeat IPC: 1.92257 cumulative IPC: 1.92257 (Simulation time: 0 hr 2 min 43 sec) 
CPU 0 runs /datasets/cs240c-wi22-a00-public/data/Assignment2-gz/calculix_2655B.trace.gz
Heartbeat CPU 0 instructions: 1000003 cycles: 371402 heartbeat IPC: 2.69251 cumulative IPC: 2.69251 (Simulation time: 0 hr 2 min 45 sec) 
CPU 0 runs /datasets/cs240c-wi22-a00-public/data/Assignment2-gz/soplex_205B.trace.gz
Heartbeat CPU 0 instructions: 1000000 cycles: 394357 heartbeat IPC: 2.53577 cumulative IPC: 2.53577 (Simulation time: 0 hr 3 min 5 sec) 
CPU 0 runs /datasets/cs240c-wi22-a00-public/data/Assignment2-gz/sphinx3_2520B.trace.gz
Heartbeat CPU 0 instructions: 1000003 cycles: 338265 heartbeat IPC: 2.95627 cumulative IPC: 2.95627 (Simulation time: 0 hr 3 min 7 sec) 
CPU 0 runs /datasets/cs240c-wi22-a00-public/data/Assignment2-gz/zeusmp_600B.trace.gz
Heartbeat CPU 0 instructions: 1000000 cycles: 407507 heartbeat IPC: 2.45395 cumulative IPC: 2.45395 (Simulation time: 0 hr 3 min 11 sec) 
CPU 0 runs /datasets/cs240c-wi22-a00-public/data/Assignment2-gz/sphinx3_1339B.trace.gz
Heartbeat CPU 0 instructions: 1000001 cycles: 338437 heartbeat IPC: 2.95476 cumulative IPC: 2.95476 (Simulation time: 0 hr 3 min 12 sec) 
CPU 0 runs /datasets/cs240c-wi22-a00-public/data/Assignment2-gz/milc_744B.trace.gz
Heartbeat CPU 0 instructions: 1000000 cycles: 383399 heartbeat IPC: 2.60825 cumulative IPC: 2.60825 (Simulation time: 0 hr 3 min 14 sec) 
CPU 0 runs /datasets/cs240c-wi22-a00-public/data/Assignment2-gz/omnetpp_4B.trace.gz
Heartbeat CPU 0 instructions: 1000001 cycles: 566835 heartbeat IPC: 1.76418 cumulative IPC: 1.76418 (Simulation time: 0 hr 3 min 18 sec) 
CPU 0 runs /datasets/cs240c-wi22-a00-public/data/Assignment2-gz/astar_23B.trace.gz
Heartbeat CPU 0 instructions: 1000000 cycles: 360103 heartbeat IPC: 2.77698 cumulative IPC: 2.77698 (Simulation time: 0 hr 3 min 18 sec) 
CPU 0 runs /datasets/cs240c-wi22-a00-public/data/Assignment2-gz/omnetpp_17B.trace.gz
Heartbeat CPU 0 instructions: 1000000 cycles: 559780 heartbeat IPC: 1.78642 cumulative IPC: 1.78642 (Simulation time: 0 hr 3 min 17 sec) 
CPU 0 runs /datasets/cs240c-wi22-a00-public/data/Assignment2-gz/zeusmp_300B.trace.gz
Heartbeat CPU 0 instructions: 1000003 cycles: 508391 heartbeat IPC: 1.967 cumulative IPC: 1.967 (Simulation time: 0 hr 3 min 18 sec) 
CPU 0 runs /datasets/cs240c-wi22-a00-public/data/Assignment2-gz/sphinx3_883B.trace.gz
Heartbeat CPU 0 instructions: 1000003 cycles: 413061 heartbeat IPC: 2.42096 cumulative IPC: 2.42096 (Simulation time: 0 hr 3 min 20 sec) 
CPU 0 runs /datasets/cs240c-wi22-a00-public/data/Assignment2-gz/soplex_66B.trace.gz
Heartbeat CPU 0 instructions: 1000003 cycles: 416333 heartbeat IPC: 2.40193 cumulative IPC: 2.40193 (Simulation time: 0 hr 3 min 26 sec) 
CPU 0 runs /datasets/cs240c-wi22-a00-public/data/Assignment2-gz/bzip2_183B.trace.gz
Heartbeat CPU 0 instructions: 1000000 cycles: 448069 heartbeat IPC: 2.2318 cumulative IPC: 2.2318 (Simulation time: 0 hr 3 min 27 sec) 
CPU 0 runs /datasets/cs240c-wi22-a00-public/data/Assignment2-gz/zeusmp_100B.trace.gz
Heartbeat CPU 0 instructions: 1000002 cycles: 464468 heartbeat IPC: 2.15301 cumulative IPC: 2.15301 (Simulation time: 0 hr 3 min 29 sec) 
CPU 0 runs /datasets/cs240c-wi22-a00-public/data/Assignment2-gz/lbm_564B.trace.gz
Heartbeat CPU 0 instructions: 1000000 cycles: 390238 heartbeat IPC: 2.56254 cumulative IPC: 2.56254 (Simulation time: 0 hr 3 min 31 sec) 
CPU 0 runs /datasets/cs240c-wi22-a00-public/data/Assignment2-gz/bzip2_281B.trace.gz
Heartbeat CPU 0 instructions: 1000000 cycles: 445723 heartbeat IPC: 2.24355 cumulative IPC: 2.24355 (Simulation time: 0 hr 3 min 31 sec) 
CPU 0 runs /datasets/cs240c-wi22-a00-public/data/Assignment2-gz/GemsFDTD_716B.trace.gz
Heartbeat CPU 0 instructions: 1000000 cycles: 415494 heartbeat IPC: 2.40677 cumulative IPC: 2.40677 (Simulation time: 0 hr 3 min 35 sec) 
CPU 0 runs /datasets/cs240c-wi22-a00-public/data/Assignment2-gz/calculix_3812B.trace.gz
Heartbeat CPU 0 instructions: 1000001 cycles: 475279 heartbeat IPC: 2.10403 cumulative IPC: 2.10403 (Simulation time: 0 hr 3 min 36 sec) 
CPU 0 runs /datasets/cs240c-wi22-a00-public/data/Assignment2-gz/milc_409B.trace.gz
Heartbeat CPU 0 instructions: 1000000 cycles: 402731 heartbeat IPC: 2.48305 cumulative IPC: 2.48305 (Simulation time: 0 hr 3 min 36 sec) 
CPU 0 runs /datasets/cs240c-wi22-a00-public/data/Assignment2-gz/gcc_39B.trace.gz
Heartbeat CPU 0 instructions: 1000000 cycles: 510392 heartbeat IPC: 1.95928 cumulative IPC: 1.95928 (Simulation time: 0 hr 3 min 37 sec) 
CPU 0 runs /datasets/cs240c-wi22-a00-public/data/Assignment2-gz/lbm_94B.trace.gz
Heartbeat CPU 0 instructions: 1000000 cycles: 422411 heartbeat IPC: 2.36736 cumulative IPC: 2.36736 (Simulation time: 0 hr 3 min 38 sec) 
CPU 0 runs /datasets/cs240c-wi22-a00-public/data/Assignment2-gz/leslie3d_1116B.trace.gz
Heartbeat CPU 0 instructions: 1000001 cycles: 532936 heartbeat IPC: 1.8764 cumulative IPC: 1.8764 (Simulation time: 0 hr 3 min 42 sec) 
CPU 0 runs /datasets/cs240c-wi22-a00-public/data/Assignment2-gz/wrf_1650B.trace.gz
Heartbeat CPU 0 instructions: 1000000 cycles: 514412 heartbeat IPC: 1.94397 cumulative IPC: 1.94397 (Simulation time: 0 hr 3 min 42 sec) 
CPU 0 runs /datasets/cs240c-wi22-a00-public/data/Assignment2-gz/astar_163B.trace.gz
Heartbeat CPU 0 instructions: 1000002 cycles: 530774 heartbeat IPC: 1.88404 cumulative IPC: 1.88404 (Simulation time: 0 hr 3 min 44 sec) 
CPU 0 runs /datasets/cs240c-wi22-a00-public/data/Assignment2-gz/lbm_1004B.trace.gz
Heartbeat CPU 0 instructions: 1000002 cycles: 391495 heartbeat IPC: 2.55432 cumulative IPC: 2.55432 (Simulation time: 0 hr 3 min 44 sec) 
CPU 0 runs /datasets/cs240c-wi22-a00-public/data/Assignment2-gz/bzip2_259B.trace.gz
Heartbeat CPU 0 instructions: 1000002 cycles: 428954 heartbeat IPC: 2.33126 cumulative IPC: 2.33126 (Simulation time: 0 hr 3 min 48 sec) 
CPU 0 runs /datasets/cs240c-wi22-a00-public/data/Assignment2-gz/soplex_217B.trace.gz
Heartbeat CPU 0 instructions: 1000000 cycles: 437356 heartbeat IPC: 2.28647 cumulative IPC: 2.28647 (Simulation time: 0 hr 3 min 51 sec) 
CPU 0 runs /datasets/cs240c-wi22-a00-public/data/Assignment2-gz/perlbench_53B.trace.gz
Heartbeat CPU 0 instructions: 1000000 cycles: 617122 heartbeat IPC: 1.62043 cumulative IPC: 1.62043 (Simulation time: 0 hr 3 min 57 sec) 
CPU 0 runs /datasets/cs240c-wi22-a00-public/data/Assignment2-gz/gcc_56B.trace.gz
Heartbeat CPU 0 instructions: 1000003 cycles: 954224 heartbeat IPC: 1.04798 cumulative IPC: 1.04798 (Simulation time: 0 hr 4 min 0 sec) 
CPU 0 runs /datasets/cs240c-wi22-a00-public/data/Assignment2-gz/gcc_13B.trace.gz
Heartbeat CPU 0 instructions: 1000000 cycles: 644728 heartbeat IPC: 1.55104 cumulative IPC: 1.55104 (Simulation time: 0 hr 4 min 0 sec) 
CPU 0 runs /datasets/cs240c-wi22-a00-public/data/Assignment2-gz/perlbench_105B.trace.gz
Heartbeat CPU 0 instructions: 1000000 cycles: 578082 heartbeat IPC: 1.72986 cumulative IPC: 1.72986 (Simulation time: 0 hr 4 min 1 sec) 
CPU 0 runs /datasets/cs240c-wi22-a00-public/data/Assignment2-gz/milc_360B.trace.gz
Heartbeat CPU 0 instructions: 1000001 cycles: 549889 heartbeat IPC: 1.81855 cumulative IPC: 1.81855 (Simulation time: 0 hr 4 min 1 sec) 
CPU 0 runs /datasets/cs240c-wi22-a00-public/data/Assignment2-gz/wrf_1212B.trace.gz
Heartbeat CPU 0 instructions: 1000001 cycles: 599253 heartbeat IPC: 1.66875 cumulative IPC: 1.66875 (Simulation time: 0 hr 4 min 3 sec) 
CPU 0 runs /datasets/cs240c-wi22-a00-public/data/Assignment2-gz/mcf_46B.trace.gz
Heartbeat CPU 0 instructions: 1000002 cycles: 482155 heartbeat IPC: 2.07403 cumulative IPC: 2.07403 (Simulation time: 0 hr 4 min 8 sec) 
CPU 0 runs /datasets/cs240c-wi22-a00-public/data/Assignment2-gz/cactusADM_1495B.trace.gz
Heartbeat CPU 0 instructions: 1000003 cycles: 593354 heartbeat IPC: 1.68534 cumulative IPC: 1.68534 (Simulation time: 0 hr 4 min 9 sec) 
CPU 0 runs /datasets/cs240c-wi22-a00-public/data/Assignment2-gz/leslie3d_94B.trace.gz
Heartbeat CPU 0 instructions: 1000003 cycles: 592147 heartbeat IPC: 1.68877 cumulative IPC: 1.68877 (Simulation time: 0 hr 4 min 14 sec) 
CPU 0 runs /datasets/cs240c-wi22-a00-public/data/Assignment2-gz/perlbench_135B.trace.gz
Heartbeat CPU 0 instructions: 1000000 cycles: 601490 heartbeat IPC: 1.66254 cumulative IPC: 1.66254 (Simulation time: 0 hr 4 min 16 sec) 
CPU 0 runs /datasets/cs240c-wi22-a00-public/data/Assignment2-gz/mcf_250B.trace.gz
Heartbeat CPU 0 instructions: 1000000 cycles: 527308 heartbeat IPC: 1.89642 cumulative IPC: 1.89642 (Simulation time: 0 hr 4 min 17 sec) 
CPU 0 runs /datasets/cs240c-wi22-a00-public/data/Assignment2-gz/mcf_158B.trace.gz
Heartbeat CPU 0 instructions: 1000002 cycles: 496507 heartbeat IPC: 2.01407 cumulative IPC: 2.01407 (Simulation time: 0 hr 4 min 18 sec) 
CPU 0 runs /datasets/cs240c-wi22-a00-public/data/Assignment2-gz/cactusADM_734B.trace.gz
Heartbeat CPU 0 instructions: 1000003 cycles: 592365 heartbeat IPC: 1.68815 cumulative IPC: 1.68815 (Simulation time: 0 hr 4 min 21 sec) 
CPU 0 runs /datasets/cs240c-wi22-a00-public/data/Assignment2-gz/cactusADM_1039B.trace.gz
Heartbeat CPU 0 instructions: 1000000 cycles: 595112 heartbeat IPC: 1.68036 cumulative IPC: 1.68036 (Simulation time: 0 hr 4 min 22 sec) 
CPU 0 runs /datasets/cs240c-wi22-a00-public/data/Assignment2-gz/wrf_1228B.trace.gz
Heartbeat CPU 0 instructions: 1000003 cycles: 590333 heartbeat IPC: 1.69396 cumulative IPC: 1.69396 (Simulation time: 0 hr 4 min 22 sec) 
CPU 0 runs /datasets/cs240c-wi22-a00-public/data/Assignment2-gz/GemsFDTD_712B.trace.gz
Heartbeat CPU 0 instructions: 1000003 cycles: 633083 heartbeat IPC: 1.57958 cumulative IPC: 1.57958 (Simulation time: 0 hr 4 min 24 sec) 
CPU 0 runs /datasets/cs240c-wi22-a00-public/data/Assignment2-gz/omnetpp_340B.trace.gz
Heartbeat CPU 0 instructions: 1000001 cycles: 578280 heartbeat IPC: 1.72927 cumulative IPC: 1.72927 (Simulation time: 0 hr 4 min 27 sec) 
CPU 0 runs /datasets/cs240c-wi22-a00-public/data/Assignment2-gz/GemsFDTD_109B.trace.gz
Heartbeat CPU 0 instructions: 1000002 cycles: 577063 heartbeat IPC: 1.73292 cumulative IPC: 1.73292 (Simulation time: 0 hr 4 min 30 sec) 
Heartbeat CPU 0 instructions: 2000001 cycles: 666677 heartbeat IPC: 3 cumulative IPC: 2.99995 (Simulation time: 0 hr 4 min 31 sec) 
CPU 0 runs /datasets/cs240c-wi22-a00-public/data/Assignment2-gz/leslie3d_1186B.trace.gz
Heartbeat CPU 0 instructions: 1000002 cycles: 557793 heartbeat IPC: 1.79278 cumulative IPC: 1.79278 (Simulation time: 0 hr 4 min 33 sec) 
CPU 0 runs /datasets/cs240c-wi22-a00-public/data/Assignment2-gz/astar_313B.trace.gz
Heartbeat CPU 0 instructions: 1000001 cycles: 678650 heartbeat IPC: 1.47352 cumulative IPC: 1.47352 (Simulation time: 0 hr 4 min 34 sec) 
Heartbeat CPU 0 instructions: 2000000 cycles: 630173 heartbeat IPC: 3.17201 cumulative IPC: 3.17373 (Simulation time: 0 hr 4 min 44 sec) 
Heartbeat CPU 0 instructions: 2000003 cycles: 666677 heartbeat IPC: 3.00001 cumulative IPC: 2.99996 (Simulation time: 0 hr 4 min 53 sec) 
Heartbeat CPU 0 instructions: 2000001 cycles: 746536 heartbeat IPC: 2.66571 cumulative IPC: 2.67904 (Simulation time: 0 hr 5 min 22 sec) 
Heartbeat CPU 0 instructions: 2000001 cycles: 1039679 heartbeat IPC: 1.92478 cumulative IPC: 1.92367 (Simulation time: 0 hr 5 min 40 sec) 
Heartbeat CPU 0 instructions: 2000001 cycles: 814374 heartbeat IPC: 2.45781 cumulative IPC: 2.45588 (Simulation time: 0 hr 6 min 14 sec) 
Heartbeat CPU 0 instructions: 2000002 cycles: 1133995 heartbeat IPC: 1.74151 cumulative IPC: 1.76368 (Simulation time: 0 hr 6 min 23 sec) 
Heartbeat CPU 0 instructions: 2000002 cycles: 890222 heartbeat IPC: 2.01668 cumulative IPC: 2.24663 (Simulation time: 0 hr 6 min 24 sec) 
Heartbeat CPU 0 instructions: 2000001 cycles: 1135262 heartbeat IPC: 1.75924 cumulative IPC: 1.76171 (Simulation time: 0 hr 6 min 27 sec) 
Heartbeat CPU 0 instructions: 2000000 cycles: 735301 heartbeat IPC: 2.51866 cumulative IPC: 2.71997 (Simulation time: 0 hr 6 min 27 sec) 
Heartbeat CPU 0 instructions: 2000001 cycles: 691941 heartbeat IPC: 2.82882 cumulative IPC: 2.89042 (Simulation time: 0 hr 6 min 30 sec) 
Heartbeat CPU 0 instructions: 2000001 cycles: 766759 heartbeat IPC: 2.60852 cumulative IPC: 2.60838 (Simulation time: 0 hr 6 min 34 sec) 
Heartbeat CPU 0 instructions: 2000003 cycles: 1059161 heartbeat IPC: 1.81564 cumulative IPC: 1.88829 (Simulation time: 0 hr 6 min 37 sec) 
Heartbeat CPU 0 instructions: 2000001 cycles: 720965 heartbeat IPC: 2.77115 cumulative IPC: 2.77406 (Simulation time: 0 hr 6 min 39 sec) 
Heartbeat CPU 0 instructions: 2000000 cycles: 821532 heartbeat IPC: 2.44815 cumulative IPC: 2.43448 (Simulation time: 0 hr 6 min 45 sec) 
Heartbeat CPU 0 instructions: 3000000 cycles: 1000009 heartbeat IPC: 3.00001 cumulative IPC: 2.99997 (Simulation time: 0 hr 6 min 48 sec) 
Heartbeat CPU 0 instructions: 2000001 cycles: 928928 heartbeat IPC: 2.15304 cumulative IPC: 2.15302 (Simulation time: 0 hr 6 min 50 sec) 
Heartbeat CPU 0 instructions: 2000003 cycles: 785321 heartbeat IPC: 2.53112 cumulative IPC: 2.54673 (Simulation time: 0 hr 6 min 52 sec) 
Heartbeat CPU 0 instructions: 2000002 cycles: 842776 heartbeat IPC: 2.34498 cumulative IPC: 2.37311 (Simulation time: 0 hr 6 min 55 sec) 
Heartbeat CPU 0 instructions: 2000000 cycles: 812709 heartbeat IPC: 2.56214 cumulative IPC: 2.46091 (Simulation time: 0 hr 6 min 59 sec) 
Heartbeat CPU 0 instructions: 2000000 cycles: 1028660 heartbeat IPC: 1.94459 cumulative IPC: 1.94428 (Simulation time: 0 hr 7 min 3 sec) 
Heartbeat CPU 0 instructions: 2000003 cycles: 797919 heartbeat IPC: 2.77345 cumulative IPC: 2.50652 (Simulation time: 0 hr 7 min 5 sec) 
Heartbeat CPU 0 instructions: 2000002 cycles: 949743 heartbeat IPC: 2.10764 cumulative IPC: 2.10583 (Simulation time: 0 hr 7 min 8 sec) 
Heartbeat CPU 0 instructions: 3000003 cycles: 945982 heartbeat IPC: 3.16648 cumulative IPC: 3.17131 (Simulation time: 0 hr 7 min 8 sec) 
Heartbeat CPU 0 instructions: 2000003 cycles: 899728 heartbeat IPC: 2.20263 cumulative IPC: 2.2229 (Simulation time: 0 hr 7 min 9 sec) 
Heartbeat CPU 0 instructions: 2000001 cycles: 951159 heartbeat IPC: 1.98772 cumulative IPC: 2.1027 (Simulation time: 0 hr 7 min 22 sec) 
Heartbeat CPU 0 instructions: 2000003 cycles: 830875 heartbeat IPC: 2.40744 cumulative IPC: 2.4071 (Simulation time: 0 hr 7 min 23 sec) 
Heartbeat CPU 0 instructions: 2000000 cycles: 882610 heartbeat IPC: 2.08386 cumulative IPC: 2.26601 (Simulation time: 0 hr 7 min 25 sec) 
Heartbeat CPU 0 instructions: 3000001 cycles: 989047 heartbeat IPC: 3.10202 cumulative IPC: 3.03322 (Simulation time: 0 hr 7 min 25 sec) 
Heartbeat CPU 0 instructions: 2000002 cycles: 1020757 heartbeat IPC: 1.95939 cumulative IPC: 1.95933 (Simulation time: 0 hr 7 min 27 sec) 
Heartbeat CPU 0 instructions: 2000002 cycles: 967425 heartbeat IPC: 2.06071 cumulative IPC: 2.06735 (Simulation time: 0 hr 7 min 30 sec) 
Heartbeat CPU 0 instructions: 2000001 cycles: 782981 heartbeat IPC: 2.55437 cumulative IPC: 2.55434 (Simulation time: 0 hr 7 min 33 sec) 
Heartbeat CPU 0 instructions: 2000003 cycles: 861405 heartbeat IPC: 2.3124 cumulative IPC: 2.32179 (Simulation time: 0 hr 7 min 42 sec) 
Heartbeat CPU 0 instructions: 2000001 cycles: 1257204 heartbeat IPC: 1.63272 cumulative IPC: 1.59083 (Simulation time: 0 hr 7 min 43 sec) 
Heartbeat CPU 0 instructions: 2000003 cycles: 1066398 heartbeat IPC: 1.87455 cumulative IPC: 1.87548 (Simulation time: 0 hr 7 min 48 sec) 
Heartbeat CPU 0 instructions: 3000002 cycles: 1121180 heartbeat IPC: 2.6692 cumulative IPC: 2.67575 (Simulation time: 0 hr 7 min 54 sec) 
Heartbeat CPU 0 instructions: 2000003 cycles: 1060018 heartbeat IPC: 1.88949 cumulative IPC: 1.88676 (Simulation time: 0 hr 7 min 57 sec) 
Heartbeat CPU 0 instructions: 2000003 cycles: 1099779 heartbeat IPC: 1.81855 cumulative IPC: 1.81855 (Simulation time: 0 hr 7 min 58 sec) 
Heartbeat CPU 0 instructions: 2000001 cycles: 1164382 heartbeat IPC: 1.70561 cumulative IPC: 1.71765 (Simulation time: 0 hr 8 min 6 sec) 
Heartbeat CPU 0 instructions: 2000000 cycles: 1198243 heartbeat IPC: 1.66948 cumulative IPC: 1.66911 (Simulation time: 0 hr 8 min 10 sec) 
Heartbeat CPU 0 instructions: 2000002 cycles: 1100488 heartbeat IPC: 1.96019 cumulative IPC: 1.81738 (Simulation time: 0 hr 8 min 17 sec) 
Heartbeat CPU 0 instructions: 2000001 cycles: 1898520 heartbeat IPC: 1.05899 cumulative IPC: 1.05345 (Simulation time: 0 hr 8 min 19 sec) 
Heartbeat CPU 0 instructions: 2000001 cycles: 1255808 heartbeat IPC: 1.56572 cumulative IPC: 1.5926 (Simulation time: 0 hr 8 min 24 sec) 
Heartbeat CPU 0 instructions: 2000000 cycles: 1186182 heartbeat IPC: 1.68682 cumulative IPC: 1.68608 (Simulation time: 0 hr 8 min 24 sec) 
Heartbeat CPU 0 instructions: 2000002 cycles: 992142 heartbeat IPC: 2.01761 cumulative IPC: 2.01584 (Simulation time: 0 hr 8 min 27 sec) 
Heartbeat CPU 0 instructions: 2000001 cycles: 1185295 heartbeat IPC: 1.68654 cumulative IPC: 1.68734 (Simulation time: 0 hr 8 min 29 sec) 
Heartbeat CPU 0 instructions: 3000001 cycles: 1559976 heartbeat IPC: 1.92198 cumulative IPC: 1.92311 (Simulation time: 0 hr 8 min 41 sec) 
Heartbeat CPU 0 instructions: 2000003 cycles: 1028910 heartbeat IPC: 1.99362 cumulative IPC: 1.94381 (Simulation time: 0 hr 8 min 42 sec) 
Heartbeat CPU 0 instructions: 2000000 cycles: 1212073 heartbeat IPC: 1.63778 cumulative IPC: 1.65007 (Simulation time: 0 hr 8 min 43 sec) 
Heartbeat CPU 0 instructions: 2000002 cycles: 1206641 heartbeat IPC: 1.62735 cumulative IPC: 1.6575 (Simulation time: 0 hr 8 min 49 sec) 
Heartbeat CPU 0 instructions: 2000000 cycles: 1162467 heartbeat IPC: 1.71178 cumulative IPC: 1.72048 (Simulation time: 0 hr 8 min 48 sec) 
Heartbeat CPU 0 instructions: 2000002 cycles: 1190036 heartbeat IPC: 1.68089 cumulative IPC: 1.68062 (Simulation time: 0 hr 8 min 50 sec) 
Heartbeat CPU 0 instructions: 2000000 cycles: 1266011 heartbeat IPC: 1.57995 cumulative IPC: 1.57977 (Simulation time: 0 hr 8 min 50 sec) 
Heartbeat CPU 0 instructions: 4000000 cycles: 1333342 heartbeat IPC: 3 cumulative IPC: 2.99998 (Simulation time: 0 hr 9 min 4 sec) 
Heartbeat CPU 0 instructions: 2000003 cycles: 1154104 heartbeat IPC: 1.73298 cumulative IPC: 1.73295 (Simulation time: 0 hr 9 min 7 sec) 
Heartbeat CPU 0 instructions: 2000003 cycles: 1269357 heartbeat IPC: 1.69289 cumulative IPC: 1.5756 (Simulation time: 0 hr 9 min 14 sec) 
Heartbeat CPU 0 instructions: 3000003 cycles: 1221893 heartbeat IPC: 2.45388 cumulative IPC: 2.45521 (Simulation time: 0 hr 9 min 14 sec) 
Heartbeat CPU 0 instructions: 3000001 cycles: 1769252 heartbeat IPC: 1.57416 cumulative IPC: 1.69563 (Simulation time: 0 hr 9 min 19 sec) 
Heartbeat CPU 0 instructions: 3000003 cycles: 1181536 heartbeat IPC: 2.24098 cumulative IPC: 2.53907 (Simulation time: 0 hr 9 min 22 sec) 
Heartbeat CPU 0 instructions: 4000000 cycles: 1260334 heartbeat IPC: 3.18114 cumulative IPC: 3.17376 (Simulation time: 0 hr 9 min 33 sec) 
Heartbeat CPU 0 instructions: 2000000 cycles: 1204525 heartbeat IPC: 1.54623 cumulative IPC: 1.66041 (Simulation time: 0 hr 9 min 36 sec) 
Heartbeat CPU 0 instructions: 3000003 cycles: 1294920 heartbeat IPC: 2.11244 cumulative IPC: 2.31675 (Simulation time: 0 hr 9 min 42 sec) 
Heartbeat CPU 0 instructions: 3000001 cycles: 1722681 heartbeat IPC: 1.70236 cumulative IPC: 1.74147 (Simulation time: 0 hr 9 min 47 sec) 
Heartbeat CPU 0 instructions: 3000002 cycles: 1602081 heartbeat IPC: 1.84189 cumulative IPC: 1.87257 (Simulation time: 0 hr 9 min 52 sec) 
Heartbeat CPU 0 instructions: 3000000 cycles: 1081973 heartbeat IPC: 2.56389 cumulative IPC: 2.77271 (Simulation time: 0 hr 9 min 52 sec) 
Heartbeat CPU 0 instructions: 3000000 cycles: 1079917 heartbeat IPC: 2.78589 cumulative IPC: 2.77799 (Simulation time: 0 hr 9 min 55 sec) 
Heartbeat CPU 0 instructions: 3000001 cycles: 1150170 heartbeat IPC: 2.60817 cumulative IPC: 2.60831 (Simulation time: 0 hr 9 min 55 sec) 
Heartbeat CPU 0 instructions: 4000000 cycles: 1290772 heartbeat IPC: 3.31427 cumulative IPC: 3.09892 (Simulation time: 0 hr 10 min 4 sec) 
Heartbeat CPU 0 instructions: 3000002 cycles: 1175571 heartbeat IPC: 2.56246 cumulative IPC: 2.55195 (Simulation time: 0 hr 10 min 9 sec) 
Heartbeat CPU 0 instructions: 3000003 cycles: 1393617 heartbeat IPC: 2.15198 cumulative IPC: 2.15267 (Simulation time: 0 hr 10 min 10 sec) 
Heartbeat CPU 0 instructions: 3000001 cycles: 1546521 heartbeat IPC: 1.93102 cumulative IPC: 1.93984 (Simulation time: 0 hr 10 min 16 sec) 
Heartbeat CPU 0 instructions: 3000000 cycles: 1211869 heartbeat IPC: 2.50526 cumulative IPC: 2.47552 (Simulation time: 0 hr 10 min 21 sec) 
Heartbeat CPU 0 instructions: 3000003 cycles: 1252582 heartbeat IPC: 2.44018 cumulative IPC: 2.39506 (Simulation time: 0 hr 10 min 22 sec) 
Heartbeat CPU 0 instructions: 3000000 cycles: 1248891 heartbeat IPC: 2.21743 cumulative IPC: 2.40213 (Simulation time: 0 hr 10 min 29 sec) 
Heartbeat CPU 0 instructions: 3000000 cycles: 1360004 heartbeat IPC: 2.12864 cumulative IPC: 2.20588 (Simulation time: 0 hr 10 min 31 sec) 
Heartbeat CPU 0 instructions: 3000002 cycles: 1314505 heartbeat IPC: 2.41093 cumulative IPC: 2.28223 (Simulation time: 0 hr 10 min 41 sec) 
Heartbeat CPU 0 instructions: 4000000 cycles: 1487470 heartbeat IPC: 2.73007 cumulative IPC: 2.68913 (Simulation time: 0 hr 10 min 41 sec) 
Heartbeat CPU 0 instructions: 3000002 cycles: 1425613 heartbeat IPC: 2.10141 cumulative IPC: 2.10436 (Simulation time: 0 hr 10 min 46 sec) 
Heartbeat CPU 0 instructions: 3000001 cycles: 1457648 heartbeat IPC: 1.97438 cumulative IPC: 2.05811 (Simulation time: 0 hr 10 min 54 sec) 
Heartbeat CPU 0 instructions: 3000000 cycles: 1286935 heartbeat IPC: 2.19269 cumulative IPC: 2.33112 (Simulation time: 0 hr 10 min 55 sec) 
Heartbeat CPU 0 instructions: 3000000 cycles: 1483610 heartbeat IPC: 1.93729 cumulative IPC: 2.02209 (Simulation time: 0 hr 11 min 8 sec) 
Heartbeat CPU 0 instructions: 3000001 cycles: 1287146 heartbeat IPC: 2.34884 cumulative IPC: 2.33074 (Simulation time: 0 hr 11 min 10 sec) 
Heartbeat CPU 0 instructions: 3000001 cycles: 1174398 heartbeat IPC: 2.55482 cumulative IPC: 2.5545 (Simulation time: 0 hr 11 min 12 sec) 
Heartbeat CPU 0 instructions: 3000000 cycles: 1735155 heartbeat IPC: 2.09226 cumulative IPC: 1.72895 (Simulation time: 0 hr 11 min 13 sec) 
Heartbeat CPU 0 instructions: 3000002 cycles: 1529819 heartbeat IPC: 1.9644 cumulative IPC: 1.96102 (Simulation time: 0 hr 11 min 19 sec) 
Heartbeat CPU 0 instructions: 5000001 cycles: 1666677 heartbeat IPC: 2.99999 cumulative IPC: 2.99998 (Simulation time: 0 hr 11 min 20 sec) 

Warmup complete CPU 0 instructions: 5000001 cycles: 1666677 (Simulation time: 0 hr 11 min 20 sec) 

Heartbeat CPU 0 instructions: 4000000 cycles: 2081696 heartbeat IPC: 1.91674 cumulative IPC: 1.92151 (Simulation time: 0 hr 11 min 31 sec) 
Heartbeat CPU 0 instructions: 3000003 cycles: 1600517 heartbeat IPC: 1.87224 cumulative IPC: 1.8744 (Simulation time: 0 hr 11 min 47 sec) 
Heartbeat CPU 0 instructions: 3000001 cycles: 1649612 heartbeat IPC: 1.81873 cumulative IPC: 1.81861 (Simulation time: 0 hr 11 min 49 sec) 
Heartbeat CPU 0 instructions: 5000000 cycles: 1576820 heartbeat IPC: 3.1597 cumulative IPC: 3.17094 (Simulation time: 0 hr 11 min 51 sec) 

Warmup complete CPU 0 instructions: 5000004 cycles: 1576821 (Simulation time: 0 hr 11 min 51 sec) 

Heartbeat CPU 0 instructions: 3000001 cycles: 1726618 heartbeat IPC: 1.77861 cumulative IPC: 1.7375 (Simulation time: 0 hr 11 min 52 sec) 
Heartbeat CPU 0 instructions: 3000001 cycles: 1797630 heartbeat IPC: 1.66837 cumulative IPC: 1.66886 (Simulation time: 0 hr 11 min 55 sec) 
Heartbeat CPU 0 instructions: 3000002 cycles: 1589730 heartbeat IPC: 1.88782 cumulative IPC: 1.88711 (Simulation time: 0 hr 12 min 1 sec) 
Heartbeat CPU 0 instructions: 3000003 cycles: 1662913 heartbeat IPC: 1.28156 cumulative IPC: 1.80406 (Simulation time: 0 hr 12 min 7 sec) 
Heartbeat CPU 0 instructions: 4000000 cycles: 1629601 heartbeat IPC: 2.45273 cumulative IPC: 2.45459 (Simulation time: 0 hr 12 min 22 sec) 
Heartbeat CPU 0 instructions: 4000000 cycles: 2334552 heartbeat IPC: 1.76897 cumulative IPC: 1.71339 (Simulation time: 0 hr 12 min 24 sec) 
Heartbeat CPU 0 instructions: 3000001 cycles: 2885884 heartbeat IPC: 1.0128 cumulative IPC: 1.03954 (Simulation time: 0 hr 12 min 26 sec) 
Heartbeat CPU 0 instructions: 4000000 cycles: 1633292 heartbeat IPC: 2.95532 cumulative IPC: 2.44904 (Simulation time: 0 hr 12 min 27 sec) 
Heartbeat CPU 0 instructions: 3000000 cycles: 1488394 heartbeat IPC: 2.0151 cumulative IPC: 2.0156 (Simulation time: 0 hr 12 min 33 sec) 
Heartbeat CPU 0 instructions: 3000003 cycles: 1778084 heartbeat IPC: 1.68694 cumulative IPC: 1.68721 (Simulation time: 0 hr 12 min 35 sec) 
Heartbeat CPU 0 instructions: 4000000 cycles: 1519954 heartbeat IPC: 2.95492 cumulative IPC: 2.63166 (Simulation time: 0 hr 12 min 35 sec) 
Heartbeat CPU 0 instructions: 3000002 cycles: 1912368 heartbeat IPC: 1.52309 cumulative IPC: 1.56874 (Simulation time: 0 hr 12 min 40 sec) 
Heartbeat CPU 0 instructions: 5000000 cycles: 1592498 heartbeat IPC: 3.31427 cumulative IPC: 3.13972 (Simulation time: 0 hr 12 min 46 sec) 

Warmup complete CPU 0 instructions: 5000004 cycles: 1592499 (Simulation time: 0 hr 12 min 46 sec) 

Heartbeat CPU 0 instructions: 3000002 cycles: 1512313 heartbeat IPC: 2.06867 cumulative IPC: 1.98372 (Simulation time: 0 hr 12 min 47 sec) 
Heartbeat CPU 0 instructions: 4000000 cycles: 2291977 heartbeat IPC: 1.75655 cumulative IPC: 1.74522 (Simulation time: 0 hr 12 min 48 sec) 
Heartbeat CPU 0 instructions: 3000000 cycles: 1708713 heartbeat IPC: 1.64413 cumulative IPC: 1.75571 (Simulation time: 0 hr 12 min 48 sec) 
Heartbeat CPU 0 instructions: 4000000 cycles: 1526799 heartbeat IPC: 2.24807 cumulative IPC: 2.61986 (Simulation time: 0 hr 12 min 51 sec) 
Heartbeat CPU 0 instructions: 3000003 cycles: 1779362 heartbeat IPC: 1.68583 cumulative IPC: 1.686 (Simulation time: 0 hr 12 min 55 sec) 
Heartbeat CPU 0 instructions: 3000001 cycles: 1760247 heartbeat IPC: 1.67286 cumulative IPC: 1.70431 (Simulation time: 0 hr 13 min 4 sec) 
Heartbeat CPU 0 instructions: 4000000 cycles: 2064469 heartbeat IPC: 1.93069 cumulative IPC: 1.93754 (Simulation time: 0 hr 13 min 5 sec) 
Heartbeat CPU 0 instructions: 3000000 cycles: 1898565 heartbeat IPC: 1.58089 cumulative IPC: 1.58014 (Simulation time: 0 hr 13 min 8 sec) 
Heartbeat CPU 0 instructions: 4000000 cycles: 2087846 heartbeat IPC: 2.0586 cumulative IPC: 1.91585 (Simulation time: 0 hr 13 min 8 sec) 
Heartbeat CPU 0 instructions: 3000000 cycles: 1836606 heartbeat IPC: 1.6012 cumulative IPC: 1.63345 (Simulation time: 0 hr 13 min 11 sec) 
Heartbeat CPU 0 instructions: 5000003 cycles: 1860159 heartbeat IPC: 2.68321 cumulative IPC: 2.68794 (Simulation time: 0 hr 13 min 12 sec) 

Warmup complete CPU 0 instructions: 5000003 cycles: 1860159 (Simulation time: 0 hr 13 min 12 sec) 

Heartbeat CPU 0 instructions: 3000002 cycles: 1854530 heartbeat IPC: 1.54347 cumulative IPC: 1.61766 (Simulation time: 0 hr 13 min 14 sec) 
Heartbeat CPU 0 instructions: 4000000 cycles: 1533552 heartbeat IPC: 2.60836 cumulative IPC: 2.60832 (Simulation time: 0 hr 13 min 14 sec) 
Heartbeat CPU 0 instructions: 3000003 cycles: 1785063 heartbeat IPC: 1.6806 cumulative IPC: 1.68061 (Simulation time: 0 hr 13 min 16 sec) 
Heartbeat CPU 0 instructions: 4000000 cycles: 1441377 heartbeat IPC: 2.76656 cumulative IPC: 2.77512 (Simulation time: 0 hr 13 min 17 sec) 
Heartbeat CPU 0 instructions: 4000000 cycles: 1858062 heartbeat IPC: 2.1531 cumulative IPC: 2.15278 (Simulation time: 0 hr 13 min 18 sec) 
Heartbeat CPU 0 instructions: 4000000 cycles: 1637884 heartbeat IPC: 2.59536 cumulative IPC: 2.44218 (Simulation time: 0 hr 13 min 25 sec) 
Heartbeat CPU 0 instructions: 3000000 cycles: 1730664 heartbeat IPC: 1.73442 cumulative IPC: 1.73344 (Simulation time: 0 hr 13 min 30 sec) 
Heartbeat CPU 0 instructions: 4000000 cycles: 1565781 heartbeat IPC: 2.56272 cumulative IPC: 2.55464 (Simulation time: 0 hr 13 min 31 sec) 
Heartbeat CPU 0 instructions: 4000000 cycles: 1632036 heartbeat IPC: 2.38001 cumulative IPC: 2.45093 (Simulation time: 0 hr 13 min 36 sec) 
Heartbeat CPU 0 instructions: 3000003 cycles: 1946167 heartbeat IPC: 1.47752 cumulative IPC: 1.54149 (Simulation time: 0 hr 13 min 42 sec) 
Heartbeat CPU 0 instructions: 4000000 cycles: 1722396 heartbeat IPC: 2.75944 cumulative IPC: 2.32235 (Simulation time: 0 hr 13 min 49 sec) 
Heartbeat CPU 0 instructions: 4000000 cycles: 1686769 heartbeat IPC: 2.28374 cumulative IPC: 2.3714 (Simulation time: 0 hr 13 min 59 sec) 
Heartbeat CPU 0 instructions: 4000000 cycles: 1753029 heartbeat IPC: 2.28037 cumulative IPC: 2.28176 (Simulation time: 0 hr 14 min 9 sec) 
Heartbeat CPU 0 instructions: 5000000 cycles: 2602077 heartbeat IPC: 1.92167 cumulative IPC: 1.92154 (Simulation time: 0 hr 14 min 16 sec) 

Warmup complete CPU 0 instructions: 5000001 cycles: 2602078 (Simulation time: 0 hr 14 min 16 sec) 

Heartbeat CPU 0 instructions: 4000000 cycles: 1895811 heartbeat IPC: 2.12676 cumulative IPC: 2.10992 (Simulation time: 0 hr 14 min 21 sec) 
Heartbeat CPU 0 instructions: 4000000 cycles: 1928242 heartbeat IPC: 2.12497 cumulative IPC: 2.07443 (Simulation time: 0 hr 14 min 24 sec) 
Heartbeat CPU 0 instructions: 4000000 cycles: 1993670 heartbeat IPC: 1.96055 cumulative IPC: 2.00635 (Simulation time: 0 hr 14 min 33 sec) 
Heartbeat CPU 0 instructions: 4000000 cycles: 1685678 heartbeat IPC: 2.50921 cumulative IPC: 2.37293 (Simulation time: 0 hr 14 min 35 sec) 
Heartbeat CPU 0 instructions: 3000000 cycles: 1851620 heartbeat IPC: 1.54537 cumulative IPC: 1.6202 (Simulation time: 0 hr 14 min 42 sec) 
Heartbeat CPU 0 instructions: 4000000 cycles: 2212908 heartbeat IPC: 2.09313 cumulative IPC: 1.80758 (Simulation time: 0 hr 14 min 47 sec) 
Heartbeat CPU 0 instructions: 4000000 cycles: 1744228 heartbeat IPC: 2.18678 cumulative IPC: 2.29328 (Simulation time: 0 hr 14 min 51 sec) 
Heartbeat CPU 0 instructions: 4000000 cycles: 1570638 heartbeat IPC: 2.52372 cumulative IPC: 2.54674 (Simulation time: 0 hr 14 min 57 sec) 
Heartbeat CPU 0 instructions: 4000000 cycles: 2038994 heartbeat IPC: 1.96396 cumulative IPC: 1.96175 (Simulation time: 0 hr 15 min 6 sec) 
Heartbeat CPU 0 instructions: 5000000 cycles: 1987098 heartbeat IPC: 2.82641 cumulative IPC: 2.51623 (Simulation time: 0 hr 15 min 24 sec) 

Warmup complete CPU 0 instructions: 5000004 cycles: 1987099 (Simulation time: 0 hr 15 min 24 sec) 

Heartbeat CPU 0 instructions: 5000001 cycles: 2037319 heartbeat IPC: 2.45268 cumulative IPC: 2.45421 (Simulation time: 0 hr 15 min 25 sec) 

Warmup complete CPU 0 instructions: 5000001 cycles: 2037319 (Simulation time: 0 hr 15 min 25 sec) 

Heartbeat CPU 0 instructions: 6000002 cycles: 3664216 heartbeat IPC: 0.500616 cumulative IPC: 0.500616 (Simulation time: 0 hr 15 min 28 sec) 
Heartbeat CPU 0 instructions: 6000001 cycles: 4802736 heartbeat IPC: 0.30999 cumulative IPC: 0.309989 (Simulation time: 0 hr 15 min 33 sec) 
Heartbeat CPU 0 instructions: 4000000 cycles: 2306048 heartbeat IPC: 1.72583 cumulative IPC: 1.73457 (Simulation time: 0 hr 15 min 38 sec) 
Heartbeat CPU 0 instructions: 5000002 cycles: 2893959 heartbeat IPC: 1.78761 cumulative IPC: 1.72774 (Simulation time: 0 hr 15 min 37 sec) 

Warmup complete CPU 0 instructions: 5000002 cycles: 2893959 (Simulation time: 0 hr 15 min 37 sec) 

Heartbeat CPU 0 instructions: 5000001 cycles: 1897207 heartbeat IPC: 2.65074 cumulative IPC: 2.63545 (Simulation time: 0 hr 15 min 42 sec) 

Warmup complete CPU 0 instructions: 5000001 cycles: 1897207 (Simulation time: 0 hr 15 min 42 sec) 

Heartbeat CPU 0 instructions: 4000000 cycles: 2396228 heartbeat IPC: 1.67057 cumulative IPC: 1.66929 (Simulation time: 0 hr 15 min 48 sec) 
Heartbeat CPU 0 instructions: 4000000 cycles: 2199464 heartbeat IPC: 1.81867 cumulative IPC: 1.81862 (Simulation time: 0 hr 15 min 52 sec) 
Heartbeat CPU 0 instructions: 5000000 cycles: 2866135 heartbeat IPC: 1.74168 cumulative IPC: 1.74451 (Simulation time: 0 hr 15 min 55 sec) 

Warmup complete CPU 0 instructions: 5000002 cycles: 2866136 (Simulation time: 0 hr 15 min 55 sec) 

Heartbeat CPU 0 instructions: 5000003 cycles: 1865232 heartbeat IPC: 2.9548 cumulative IPC: 2.68063 (Simulation time: 0 hr 15 min 55 sec) 

Warmup complete CPU 0 instructions: 5000003 cycles: 1865232 (Simulation time: 0 hr 15 min 55 sec) 

Heartbeat CPU 0 instructions: 4000000 cycles: 2133411 heartbeat IPC: 1.87654 cumulative IPC: 1.87493 (Simulation time: 0 hr 15 min 56 sec) 
Heartbeat CPU 0 instructions: 4000000 cycles: 2119462 heartbeat IPC: 1.88774 cumulative IPC: 1.88727 (Simulation time: 0 hr 16 min 1 sec) 
Heartbeat CPU 0 instructions: 5000001 cycles: 2571024 heartbeat IPC: 2.06963 cumulative IPC: 1.94475 (Simulation time: 0 hr 16 min 16 sec) 

Warmup complete CPU 0 instructions: 5000001 cycles: 2571024 (Simulation time: 0 hr 16 min 16 sec) 

Heartbeat CPU 0 instructions: 5000001 cycles: 2582394 heartbeat IPC: 1.93078 cumulative IPC: 1.93619 (Simulation time: 0 hr 16 min 17 sec) 

Warmup complete CPU 0 instructions: 5000001 cycles: 2582394 (Simulation time: 0 hr 16 min 17 sec) 

Heartbeat CPU 0 instructions: 6000003 cycles: 2440238 heartbeat IPC: 1.7239 cumulative IPC: 1.7239 (Simulation time: 0 hr 16 min 18 sec) 
Heartbeat CPU 0 instructions: 5000001 cycles: 1916947 heartbeat IPC: 2.60828 cumulative IPC: 2.60831 (Simulation time: 0 hr 16 min 23 sec) 

Warmup complete CPU 0 instructions: 5000001 cycles: 1916947 (Simulation time: 0 hr 16 min 23 sec) 

Heartbeat CPU 0 instructions: 5000003 cycles: 2322491 heartbeat IPC: 2.15319 cumulative IPC: 2.15286 (Simulation time: 0 hr 16 min 27 sec) 

Warmup complete CPU 0 instructions: 5000003 cycles: 2322491 (Simulation time: 0 hr 16 min 27 sec) 

Heartbeat CPU 0 instructions: 4000000 cycles: 3848630 heartbeat IPC: 1.03869 cumulative IPC: 1.03933 (Simulation time: 0 hr 16 min 29 sec) 
Heartbeat CPU 0 instructions: 5000000 cycles: 2037946 heartbeat IPC: 2.49961 cumulative IPC: 2.45345 (Simulation time: 0 hr 16 min 38 sec) 

Warmup complete CPU 0 instructions: 5000001 cycles: 2037948 (Simulation time: 0 hr 16 min 38 sec) 

Heartbeat CPU 0 instructions: 4000000 cycles: 1983372 heartbeat IPC: 2.02029 cumulative IPC: 2.01677 (Simulation time: 0 hr 16 min 38 sec) 
Heartbeat CPU 0 instructions: 5000000 cycles: 1803459 heartbeat IPC: 2.76181 cumulative IPC: 2.77245 (Simulation time: 0 hr 16 min 41 sec) 

Warmup complete CPU 0 instructions: 5000004 cycles: 1803460 (Simulation time: 0 hr 16 min 41 sec) 

Heartbeat CPU 0 instructions: 4000000 cycles: 2528843 heartbeat IPC: 1.62212 cumulative IPC: 1.58175 (Simulation time: 0 hr 16 min 44 sec) 
Heartbeat CPU 0 instructions: 5000001 cycles: 2022277 heartbeat IPC: 2.56252 cumulative IPC: 2.47246 (Simulation time: 0 hr 16 min 45 sec) 

Warmup complete CPU 0 instructions: 5000001 cycles: 2022277 (Simulation time: 0 hr 16 min 45 sec) 

Heartbeat CPU 0 instructions: 6000001 cycles: 4820874 heartbeat IPC: 0.309754 cumulative IPC: 0.309752 (Simulation time: 0 hr 16 min 45 sec) 
Heartbeat CPU 0 instructions: 5000000 cycles: 1960919 heartbeat IPC: 2.53076 cumulative IPC: 2.54982 (Simulation time: 0 hr 16 min 45 sec) 

Warmup complete CPU 0 instructions: 5000004 cycles: 1960920 (Simulation time: 0 hr 16 min 45 sec) 

Heartbeat CPU 0 instructions: 4000000 cycles: 2443126 heartbeat IPC: 1.2817 cumulative IPC: 1.63725 (Simulation time: 0 hr 16 min 46 sec) 
Heartbeat CPU 0 instructions: 5000001 cycles: 2071721 heartbeat IPC: 2.59773 cumulative IPC: 2.41345 (Simulation time: 0 hr 16 min 53 sec) 

Warmup complete CPU 0 instructions: 5000001 cycles: 2071721 (Simulation time: 0 hr 16 min 53 sec) 

Heartbeat CPU 0 instructions: 4000000 cycles: 2370621 heartbeat IPC: 1.68765 cumulative IPC: 1.68732 (Simulation time: 0 hr 16 min 54 sec) 
Heartbeat CPU 0 instructions: 4000000 cycles: 2372043 heartbeat IPC: 1.68724 cumulative IPC: 1.68631 (Simulation time: 0 hr 17 min 9 sec) 
Heartbeat CPU 0 instructions: 4000000 cycles: 2006629 heartbeat IPC: 2.02299 cumulative IPC: 1.99339 (Simulation time: 0 hr 17 min 9 sec) 
Heartbeat CPU 0 instructions: 4000000 cycles: 2530755 heartbeat IPC: 1.5818 cumulative IPC: 1.58056 (Simulation time: 0 hr 17 min 13 sec) 
Heartbeat CPU 0 instructions: 4000000 cycles: 2319520 heartbeat IPC: 1.63718 cumulative IPC: 1.72449 (Simulation time: 0 hr 17 min 16 sec) 
Heartbeat CPU 0 instructions: 6000001 cycles: 3075679 heartbeat IPC: 2.11148 cumulative IPC: 2.11148 (Simulation time: 0 hr 17 min 19 sec) 
Heartbeat CPU 0 instructions: 5000001 cycles: 2171246 heartbeat IPC: 2.22792 cumulative IPC: 2.30283 (Simulation time: 0 hr 17 min 20 sec) 

Warmup complete CPU 0 instructions: 5000001 cycles: 2171246 (Simulation time: 0 hr 17 min 20 sec) 

Heartbeat CPU 0 instructions: 5000002 cycles: 2174869 heartbeat IPC: 2.37057 cumulative IPC: 2.29899 (Simulation time: 0 hr 17 min 23 sec) 

Warmup complete CPU 0 instructions: 5000002 cycles: 2174869 (Simulation time: 0 hr 17 min 23 sec) 

Heartbeat CPU 0 instructions: 4000000 cycles: 2497342 heartbeat IPC: 1.51346 cumulative IPC: 1.6017 (Simulation time: 0 hr 17 min 31 sec) 
Heartbeat CPU 0 instructions: 5000000 cycles: 2346967 heartbeat IPC: 2.21653 cumulative IPC: 2.13041 (Simulation time: 0 hr 17 min 33 sec) 

Warmup complete CPU 0 instructions: 5000003 cycles: 2346968 (Simulation time: 0 hr 17 min 33 sec) 

Heartbeat CPU 0 instructions: 4000000 cycles: 2381505 heartbeat IPC: 1.60964 cumulative IPC: 1.67961 (Simulation time: 0 hr 17 min 33 sec) 
Heartbeat CPU 0 instructions: 4000000 cycles: 2502074 heartbeat IPC: 1.54429 cumulative IPC: 1.59867 (Simulation time: 0 hr 17 min 35 sec) 
Heartbeat CPU 0 instructions: 4000000 cycles: 2307005 heartbeat IPC: 1.73508 cumulative IPC: 1.73385 (Simulation time: 0 hr 17 min 42 sec) 
Heartbeat CPU 0 instructions: 4000000 cycles: 2380257 heartbeat IPC: 1.68012 cumulative IPC: 1.68049 (Simulation time: 0 hr 17 min 44 sec) 
Heartbeat CPU 0 instructions: 5000000 cycles: 2476260 heartbeat IPC: 2.07215 cumulative IPC: 2.01917 (Simulation time: 0 hr 18 min 2 sec) 

Warmup complete CPU 0 instructions: 5000004 cycles: 2476261 (Simulation time: 0 hr 18 min 2 sec) 

Heartbeat CPU 0 instructions: 5000000 cycles: 2425411 heartbeat IPC: 2.01139 cumulative IPC: 2.06151 (Simulation time: 0 hr 18 min 6 sec) 

Warmup complete CPU 0 instructions: 5000004 cycles: 2425412 (Simulation time: 0 hr 18 min 6 sec) 

Heartbeat CPU 0 instructions: 5000001 cycles: 2104126 heartbeat IPC: 2.38979 cumulative IPC: 2.37628 (Simulation time: 0 hr 18 min 7 sec) 

Warmup complete CPU 0 instructions: 5000001 cycles: 2104126 (Simulation time: 0 hr 18 min 7 sec) 

Heartbeat CPU 0 instructions: 5000002 cycles: 2691140 heartbeat IPC: 2.09104 cumulative IPC: 1.85795 (Simulation time: 0 hr 18 min 21 sec) 

Warmup complete CPU 0 instructions: 5000002 cycles: 2691140 (Simulation time: 0 hr 18 min 21 sec) 

Heartbeat CPU 0 instructions: 4000000 cycles: 2622869 heartbeat IPC: 1.47775 cumulative IPC: 1.52505 (Simulation time: 0 hr 18 min 21 sec) 
Heartbeat CPU 0 instructions: 5000003 cycles: 2548012 heartbeat IPC: 1.96457 cumulative IPC: 1.96232 (Simulation time: 0 hr 18 min 44 sec) 

Warmup complete CPU 0 instructions: 5000003 cycles: 2548012 (Simulation time: 0 hr 18 min 44 sec) 

Heartbeat CPU 0 instructions: 5000002 cycles: 1962085 heartbeat IPC: 2.55463 cumulative IPC: 2.54831 (Simulation time: 0 hr 18 min 45 sec) 

Warmup complete CPU 0 instructions: 5000002 cycles: 1962085 (Simulation time: 0 hr 18 min 45 sec) 

Heartbeat CPU 0 instructions: 5000000 cycles: 2159515 heartbeat IPC: 2.40797 cumulative IPC: 2.31533 (Simulation time: 0 hr 19 min 2 sec) 

Warmup complete CPU 0 instructions: 5000001 cycles: 2159516 (Simulation time: 0 hr 19 min 2 sec) 

Heartbeat CPU 0 instructions: 6000000 cycles: 2905684 heartbeat IPC: 1.15159 cumulative IPC: 1.15159 (Simulation time: 0 hr 19 min 6 sec) 
Heartbeat CPU 0 instructions: 7000001 cycles: 7987048 heartbeat IPC: 0.31404 cumulative IPC: 0.312001 (Simulation time: 0 hr 19 min 10 sec) 
Heartbeat CPU 0 instructions: 7000001 cycles: 5848564 heartbeat IPC: 0.457802 cumulative IPC: 0.478253 (Simulation time: 0 hr 19 min 10 sec) 
Heartbeat CPU 0 instructions: 6000000 cycles: 4576664 heartbeat IPC: 0.386165 cumulative IPC: 0.386164 (Simulation time: 0 hr 19 min 15 sec) 
Heartbeat CPU 0 instructions: 7000000 cycles: 2988311 heartbeat IPC: 1.82457 cumulative IPC: 1.77281 (Simulation time: 0 hr 19 min 17 sec) 
Heartbeat CPU 0 instructions: 5000003 cycles: 2884306 heartbeat IPC: 1.72934 cumulative IPC: 1.73352 (Simulation time: 0 hr 19 min 27 sec) 

Warmup complete CPU 0 instructions: 5000003 cycles: 2884306 (Simulation time: 0 hr 19 min 27 sec) 

Heartbeat CPU 0 instructions: 6000002 cycles: 3537864 heartbeat IPC: 0.609513 cumulative IPC: 0.609513 (Simulation time: 0 hr 19 min 26 sec) 
Heartbeat CPU 0 instructions: 6000002 cycles: 5754631 heartbeat IPC: 0.346202 cumulative IPC: 0.346201 (Simulation time: 0 hr 19 min 29 sec) 
Heartbeat CPU 0 instructions: 6000000 cycles: 5911265 heartbeat IPC: 0.331421 cumulative IPC: 0.331421 (Simulation time: 0 hr 19 min 29 sec) 
Heartbeat CPU 0 instructions: 4000000 cycles: 2452111 heartbeat IPC: 1.6653 cumulative IPC: 1.63125 (Simulation time: 0 hr 19 min 35 sec) 
Heartbeat CPU 0 instructions: 5000000 cycles: 2995748 heartbeat IPC: 1.668 cumulative IPC: 1.66903 (Simulation time: 0 hr 19 min 49 sec) 

Warmup complete CPU 0 instructions: 5000001 cycles: 2995749 (Simulation time: 0 hr 19 min 49 sec) 

Heartbeat CPU 0 instructions: 5000000 cycles: 2651055 heartbeat IPC: 1.88114 cumulative IPC: 1.88604 (Simulation time: 0 hr 19 min 53 sec) 

Warmup complete CPU 0 instructions: 5000001 cycles: 2651058 (Simulation time: 0 hr 19 min 53 sec) 

Heartbeat CPU 0 instructions: 6000000 cycles: 3438409 heartbeat IPC: 1.15289 cumulative IPC: 1.15289 (Simulation time: 0 hr 20 min 0 sec) 
Heartbeat CPU 0 instructions: 5000001 cycles: 2666043 heartbeat IPC: 1.87747 cumulative IPC: 1.87544 (Simulation time: 0 hr 20 min 5 sec) 

Warmup complete CPU 0 instructions: 5000001 cycles: 2666043 (Simulation time: 0 hr 20 min 5 sec) 

Heartbeat CPU 0 instructions: 6000000 cycles: 4588330 heartbeat IPC: 0.359083 cumulative IPC: 0.359082 (Simulation time: 0 hr 20 min 7 sec) 
Heartbeat CPU 0 instructions: 6000001 cycles: 3243959 heartbeat IPC: 1.08522 cumulative IPC: 1.08522 (Simulation time: 0 hr 20 min 7 sec) 
Heartbeat CPU 0 instructions: 6000000 cycles: 3833180 heartbeat IPC: 0.521857 cumulative IPC: 0.521857 (Simulation time: 0 hr 20 min 9 sec) 
Heartbeat CPU 0 instructions: 5000002 cycles: 2749347 heartbeat IPC: 1.81857 cumulative IPC: 1.81861 (Simulation time: 0 hr 20 min 10 sec) 

Warmup complete CPU 0 instructions: 5000002 cycles: 2749347 (Simulation time: 0 hr 20 min 10 sec) 

Heartbeat CPU 0 instructions: 6000002 cycles: 4070540 heartbeat IPC: 0.453451 cumulative IPC: 0.453451 (Simulation time: 0 hr 20 min 10 sec) 
Heartbeat CPU 0 instructions: 6000000 cycles: 3825986 heartbeat IPC: 0.570039 cumulative IPC: 0.570039 (Simulation time: 0 hr 20 min 16 sec) 
Heartbeat CPU 0 instructions: 5000002 cycles: 4738254 heartbeat IPC: 1.12407 cumulative IPC: 1.05524 (Simulation time: 0 hr 20 min 20 sec) 

Warmup complete CPU 0 instructions: 5000002 cycles: 4738254 (Simulation time: 0 hr 20 min 20 sec) 

Heartbeat CPU 0 instructions: 7000001 cycles: 3552712 heartbeat IPC: 2.09629 cumulative IPC: 2.10386 (Simulation time: 0 hr 20 min 26 sec) 
Heartbeat CPU 0 instructions: 6000003 cycles: 4216266 heartbeat IPC: 0.612044 cumulative IPC: 0.612044 (Simulation time: 0 hr 20 min 28 sec) 
Heartbeat CPU 0 instructions: 6000000 cycles: 3553611 heartbeat IPC: 0.725297 cumulative IPC: 0.725297 (Simulation time: 0 hr 20 min 31 sec) 
Heartbeat CPU 0 instructions: 6000001 cycles: 2984440 heartbeat IPC: 1.5687 cumulative IPC: 1.56869 (Simulation time: 0 hr 20 min 37 sec) 
Heartbeat CPU 0 instructions: 6000000 cycles: 4968357 heartbeat IPC: 0.341249 cumulative IPC: 0.341249 (Simulation time: 0 hr 20 min 41 sec) 
Heartbeat CPU 0 instructions: 5000002 cycles: 2476936 heartbeat IPC: 2.02608 cumulative IPC: 2.01862 (Simulation time: 0 hr 20 min 43 sec) 

Warmup complete CPU 0 instructions: 5000002 cycles: 2476936 (Simulation time: 0 hr 20 min 43 sec) 

Heartbeat CPU 0 instructions: 7000002 cycles: 8039333 heartbeat IPC: 0.310708 cumulative IPC: 0.310229 (Simulation time: 0 hr 20 min 53 sec) 
Heartbeat CPU 0 instructions: 6000002 cycles: 3404673 heartbeat IPC: 0.69264 cumulative IPC: 0.692638 (Simulation time: 0 hr 20 min 54 sec) 
Heartbeat CPU 0 instructions: 6000000 cycles: 3765397 heartbeat IPC: 0.573683 cumulative IPC: 0.573683 (Simulation time: 0 hr 20 min 58 sec) 
Heartbeat CPU 0 instructions: 5000001 cycles: 3158592 heartbeat IPC: 1.58794 cumulative IPC: 1.58298 (Simulation time: 0 hr 21 min 11 sec) 

Warmup complete CPU 0 instructions: 5000001 cycles: 3158592 (Simulation time: 0 hr 21 min 11 sec) 

Heartbeat CPU 0 instructions: 5000000 cycles: 2963700 heartbeat IPC: 1.68612 cumulative IPC: 1.68708 (Simulation time: 0 hr 21 min 13 sec) 

Warmup complete CPU 0 instructions: 5000004 cycles: 2963701 (Simulation time: 0 hr 21 min 13 sec) 

Heartbeat CPU 0 instructions: 5000000 cycles: 3123530 heartbeat IPC: 1.46971 cumulative IPC: 1.60075 (Simulation time: 0 hr 21 min 18 sec) 

Warmup complete CPU 0 instructions: 5000004 cycles: 3123531 (Simulation time: 0 hr 21 min 18 sec) 

Heartbeat CPU 0 instructions: 6000001 cycles: 3900218 heartbeat IPC: 0.678056 cumulative IPC: 0.678053 (Simulation time: 0 hr 21 min 27 sec) 
Heartbeat CPU 0 instructions: 5000003 cycles: 3163152 heartbeat IPC: 1.58129 cumulative IPC: 1.5807 (Simulation time: 0 hr 21 min 27 sec) 

Warmup complete CPU 0 instructions: 5000003 cycles: 3163152 (Simulation time: 0 hr 21 min 27 sec) 

Heartbeat CPU 0 instructions: 5000000 cycles: 2964991 heartbeat IPC: 1.68649 cumulative IPC: 1.68635 (Simulation time: 0 hr 21 min 28 sec) 

Warmup complete CPU 0 instructions: 5000004 cycles: 2964992 (Simulation time: 0 hr 21 min 28 sec) 

Heartbeat CPU 0 instructions: 6000002 cycles: 3131508 heartbeat IPC: 0.973349 cumulative IPC: 0.973349 (Simulation time: 0 hr 21 min 33 sec) 
Heartbeat CPU 0 instructions: 5000002 cycles: 2957032 heartbeat IPC: 1.73754 cumulative IPC: 1.69089 (Simulation time: 0 hr 21 min 33 sec) 

Warmup complete CPU 0 instructions: 5000002 cycles: 2957032 (Simulation time: 0 hr 21 min 33 sec) 

Heartbeat CPU 0 instructions: 5000002 cycles: 2497476 heartbeat IPC: 2.0373 cumulative IPC: 2.00202 (Simulation time: 0 hr 21 min 34 sec) 

Warmup complete CPU 0 instructions: 5000002 cycles: 2497476 (Simulation time: 0 hr 21 min 34 sec) 

Heartbeat CPU 0 instructions: 5000000 cycles: 3014528 heartbeat IPC: 1.43883 cumulative IPC: 1.65863 (Simulation time: 0 hr 21 min 40 sec) 

Warmup complete CPU 0 instructions: 5000004 cycles: 3014530 (Simulation time: 0 hr 21 min 40 sec) 

Heartbeat CPU 0 instructions: 5000001 cycles: 2975033 heartbeat IPC: 1.68131 cumulative IPC: 1.68065 (Simulation time: 0 hr 21 min 43 sec) 

Warmup complete CPU 0 instructions: 5000001 cycles: 2975033 (Simulation time: 0 hr 21 min 43 sec) 

Heartbeat CPU 0 instructions: 5000001 cycles: 3085110 heartbeat IPC: 1.70135 cumulative IPC: 1.62069 (Simulation time: 0 hr 21 min 48 sec) 

Warmup complete CPU 0 instructions: 5000001 cycles: 3085110 (Simulation time: 0 hr 21 min 48 sec) 

Heartbeat CPU 0 instructions: 5000000 cycles: 2883577 heartbeat IPC: 1.73439 cumulative IPC: 1.73396 (Simulation time: 0 hr 21 min 52 sec) 

Warmup complete CPU 0 instructions: 5000004 cycles: 2883578 (Simulation time: 0 hr 21 min 52 sec) 

Heartbeat CPU 0 instructions: 5000002 cycles: 3062207 heartbeat IPC: 1.78529 cumulative IPC: 1.63281 (Simulation time: 0 hr 21 min 56 sec) 

Warmup complete CPU 0 instructions: 5000002 cycles: 3062207 (Simulation time: 0 hr 21 min 56 sec) 

Heartbeat CPU 0 instructions: 8000000 cycles: 3535767 heartbeat IPC: 1.82663 cumulative IPC: 1.79039 (Simulation time: 0 hr 22 min 18 sec) 
Heartbeat CPU 0 instructions: 8000000 cycles: 8137332 heartbeat IPC: 0.436916 cumulative IPC: 0.463631 (Simulation time: 0 hr 22 min 42 sec) 
Heartbeat CPU 0 instructions: 7000000 cycles: 7013675 heartbeat IPC: 0.410339 cumulative IPC: 0.397884 (Simulation time: 0 hr 22 min 41 sec) 
Heartbeat CPU 0 instructions: 8000000 cycles: 11186317 heartbeat IPC: 0.312571 cumulative IPC: 0.312191 (Simulation time: 0 hr 22 min 48 sec) 
Heartbeat CPU 0 instructions: 7000002 cycles: 3778956 heartbeat IPC: 1.14512 cumulative IPC: 1.14835 (Simulation time: 0 hr 22 min 51 sec) 
Heartbeat CPU 0 instructions: 5000002 cycles: 3299967 heartbeat IPC: 1.47689 cumulative IPC: 1.51517 (Simulation time: 0 hr 22 min 55 sec) 

Warmup complete CPU 0 instructions: 5000002 cycles: 3299967 (Simulation time: 0 hr 22 min 55 sec) 

Heartbeat CPU 0 instructions: 6000000 cycles: 6800190 heartbeat IPC: 0.216032 cumulative IPC: 0.216032 (Simulation time: 0 hr 22 min 55 sec) 
Heartbeat CPU 0 instructions: 7000000 cycles: 7710367 heartbeat IPC: 0.320304 cumulative IPC: 0.338586 (Simulation time: 0 hr 23 min 7 sec) 
Heartbeat CPU 0 instructions: 7000000 cycles: 5153553 heartbeat IPC: 0.61893 cumulative IPC: 0.614185 (Simulation time: 0 hr 23 min 7 sec) 
Heartbeat CPU 0 instructions: 7000000 cycles: 8780390 heartbeat IPC: 0.330495 cumulative IPC: 0.338166 (Simulation time: 0 hr 23 min 8 sec) 
Heartbeat CPU 0 instructions: 6000003 cycles: 9500116 heartbeat IPC: 0.142372 cumulative IPC: 0.142372 (Simulation time: 0 hr 23 min 12 sec) 
Heartbeat CPU 0 instructions: 8000000 cycles: 4026025 heartbeat IPC: 2.11276 cumulative IPC: 2.10682 (Simulation time: 0 hr 23 min 21 sec) 
Heartbeat CPU 0 instructions: 6000003 cycles: 7062173 heartbeat IPC: 0.228779 cumulative IPC: 0.228779 (Simulation time: 0 hr 23 min 27 sec) 
Heartbeat CPU 0 instructions: 6000002 cycles: 3471884 heartbeat IPC: 0.66234 cumulative IPC: 0.66234 (Simulation time: 0 hr 23 min 27 sec) 
Heartbeat CPU 0 instructions: 7000000 cycles: 4389588 heartbeat IPC: 1.05133 cumulative IPC: 1.09977 (Simulation time: 0 hr 23 min 31 sec) 
Heartbeat CPU 0 instructions: 6000000 cycles: 3914634 heartbeat IPC: 0.731729 cumulative IPC: 0.731729 (Simulation time: 0 hr 23 min 32 sec) 
Heartbeat CPU 0 instructions: 7000001 cycles: 4166510 heartbeat IPC: 1.08395 cumulative IPC: 1.08459 (Simulation time: 0 hr 23 min 33 sec) 
Heartbeat CPU 0 instructions: 7000002 cycles: 4764772 heartbeat IPC: 0.825656 cumulative IPC: 0.77223 (Simulation time: 0 hr 23 min 37 sec) 
Heartbeat CPU 0 instructions: 7000000 cycles: 9785148 heartbeat IPC: 0.258139 cumulative IPC: 0.290225 (Simulation time: 0 hr 23 min 37 sec) 
Heartbeat CPU 0 instructions: 7000000 cycles: 3542426 heartbeat IPC: 1.79216 cumulative IPC: 1.673 (Simulation time: 0 hr 23 min 41 sec) 
Heartbeat CPU 0 instructions: 7000001 cycles: 5675964 heartbeat IPC: 0.622888 cumulative IPC: 0.524833 (Simulation time: 0 hr 24 min 0 sec) 
Heartbeat CPU 0 instructions: 7000002 cycles: 5762001 heartbeat IPC: 0.518452 cumulative IPC: 0.520149 (Simulation time: 0 hr 24 min 1 sec) 
Heartbeat CPU 0 instructions: 7000002 cycles: 7614631 heartbeat IPC: 0.377891 cumulative IPC: 0.358636 (Simulation time: 0 hr 24 min 4 sec) 
Heartbeat CPU 0 instructions: 5000000 cycles: 3057919 heartbeat IPC: 1.65069 cumulative IPC: 1.6351 (Simulation time: 0 hr 24 min 18 sec) 

Warmup complete CPU 0 instructions: 5000002 cycles: 3057920 (Simulation time: 0 hr 24 min 18 sec) 

Heartbeat CPU 0 instructions: 6000000 cycles: 6128534 heartbeat IPC: 0.719278 cumulative IPC: 0.719278 (Simulation time: 0 hr 24 min 21 sec) 
Heartbeat CPU 0 instructions: 6000000 cycles: 4821686 heartbeat IPC: 0.460696 cumulative IPC: 0.460696 (Simulation time: 0 hr 24 min 25 sec) 
Heartbeat CPU 0 instructions: 6000001 cycles: 4812623 heartbeat IPC: 0.550396 cumulative IPC: 0.550396 (Simulation time: 0 hr 24 min 41 sec) 
Heartbeat CPU 0 instructions: 6000000 cycles: 3507343 heartbeat IPC: 0.741934 cumulative IPC: 0.741934 (Simulation time: 0 hr 24 min 43 sec) 
Heartbeat CPU 0 instructions: 6000003 cycles: 5270109 heartbeat IPC: 0.419146 cumulative IPC: 0.419146 (Simulation time: 0 hr 24 min 44 sec) 
Heartbeat CPU 0 instructions: 7000000 cycles: 5841926 heartbeat IPC: 0.615133 cumulative IPC: 0.613585 (Simulation time: 0 hr 24 min 46 sec) 
Heartbeat CPU 0 instructions: 6000001 cycles: 4337942 heartbeat IPC: 0.598122 cumulative IPC: 0.598122 (Simulation time: 0 hr 24 min 51 sec) 
Heartbeat CPU 0 instructions: 7000003 cycles: 4155251 heartbeat IPC: 0.976809 cumulative IPC: 0.975076 (Simulation time: 0 hr 24 min 56 sec) 
Heartbeat CPU 0 instructions: 7000001 cycles: 5479144 heartbeat IPC: 0.633342 cumulative IPC: 0.654935 (Simulation time: 0 hr 24 min 56 sec) 
Heartbeat CPU 0 instructions: 7000000 cycles: 5109920 heartbeat IPC: 0.586424 cumulative IPC: 0.635121 (Simulation time: 0 hr 24 min 56 sec) 
Heartbeat CPU 0 instructions: 8000000 cycles: 11180069 heartbeat IPC: 0.318396 cumulative IPC: 0.312905 (Simulation time: 0 hr 25 min 6 sec) 
Heartbeat CPU 0 instructions: 6000001 cycles: 4698098 heartbeat IPC: 0.513149 cumulative IPC: 0.513149 (Simulation time: 0 hr 25 min 8 sec) 
Heartbeat CPU 0 instructions: 7000001 cycles: 8764431 heartbeat IPC: 0.202493 cumulative IPC: 0.298833 (Simulation time: 0 hr 25 min 12 sec) 
Heartbeat CPU 0 instructions: 7000001 cycles: 5701456 heartbeat IPC: 0.516514 cumulative IPC: 0.5436 (Simulation time: 0 hr 25 min 14 sec) 
Heartbeat CPU 0 instructions: 9000000 cycles: 4082145 heartbeat IPC: 1.83023 cumulative IPC: 1.80019 (Simulation time: 0 hr 25 min 16 sec) 
Heartbeat CPU 0 instructions: 8000000 cycles: 8651187 heartbeat IPC: 0.610683 cumulative IPC: 0.450174 (Simulation time: 0 hr 25 min 49 sec) 
Heartbeat CPU 0 instructions: 6000001 cycles: 5872632 heartbeat IPC: 0.368454 cumulative IPC: 0.368454 (Simulation time: 0 hr 25 min 51 sec) 
Heartbeat CPU 0 instructions: 8000000 cycles: 10505242 heartbeat IPC: 0.357798 cumulative IPC: 0.344757 (Simulation time: 0 hr 26 min 2 sec) 
Heartbeat CPU 0 instructions: 6000003 cycles: 5460244 heartbeat IPC: 0.427953 cumulative IPC: 0.427951 (Simulation time: 0 hr 26 min 3 sec) 
Heartbeat CPU 0 instructions: 9000001 cycles: 10435965 heartbeat IPC: 0.435042 cumulative IPC: 0.456137 (Simulation time: 0 hr 26 min 10 sec) 
Heartbeat CPU 0 instructions: 7000000 cycles: 8603714 heartbeat IPC: 0.55447 cumulative IPC: 0.310923 (Simulation time: 0 hr 26 min 13 sec) 
Heartbeat CPU 0 instructions: 6000002 cycles: 4871435 heartbeat IPC: 0.538531 cumulative IPC: 0.538529 (Simulation time: 0 hr 26 min 18 sec) 
Heartbeat CPU 0 instructions: 6000001 cycles: 4989627 heartbeat IPC: 0.493916 cumulative IPC: 0.493915 (Simulation time: 0 hr 26 min 19 sec) 
Heartbeat CPU 0 instructions: 6000002 cycles: 5078266 heartbeat IPC: 0.472911 cumulative IPC: 0.47291 (Simulation time: 0 hr 26 min 20 sec) 
Heartbeat CPU 0 instructions: 9000001 cycles: 4502728 heartbeat IPC: 2.09774 cumulative IPC: 2.10454 (Simulation time: 0 hr 26 min 24 sec) 
Heartbeat CPU 0 instructions: 8000000 cycles: 5875029 heartbeat IPC: 0.900691 cumulative IPC: 0.810775 (Simulation time: 0 hr 26 min 31 sec) 
Heartbeat CPU 0 instructions: 8000000 cycles: 6836901 heartbeat IPC: 0.594054 cumulative IPC: 0.607325 (Simulation time: 0 hr 26 min 31 sec) 
Heartbeat CPU 0 instructions: 8000000 cycles: 4095056 heartbeat IPC: 1.80953 cumulative IPC: 1.71616 (Simulation time: 0 hr 26 min 36 sec) 
Heartbeat CPU 0 instructions: 8000000 cycles: 4648701 heartbeat IPC: 1.14976 cumulative IPC: 1.14882 (Simulation time: 0 hr 26 min 37 sec) 
Heartbeat CPU 0 instructions: 8000000 cycles: 10831470 heartbeat IPC: 0.955729 cumulative IPC: 0.377952 (Simulation time: 0 hr 26 min 38 sec) 
Heartbeat CPU 0 instructions: 6000003 cycles: 5728197 heartbeat IPC: 0.378346 cumulative IPC: 0.378346 (Simulation time: 0 hr 26 min 44 sec) 
Heartbeat CPU 0 instructions: 6000002 cycles: 5096258 heartbeat IPC: 0.471426 cumulative IPC: 0.471426 (Simulation time: 0 hr 26 min 45 sec) 
Heartbeat CPU 0 instructions: 9000002 cycles: 14420761 heartbeat IPC: 0.309173 cumulative IPC: 0.311431 (Simulation time: 0 hr 26 min 46 sec) 
Heartbeat CPU 0 instructions: 6000000 cycles: 4990368 heartbeat IPC: 0.518628 cumulative IPC: 0.518628 (Simulation time: 0 hr 26 min 50 sec) 
Heartbeat CPU 0 instructions: 8000000 cycles: 12228146 heartbeat IPC: 0.290044 cumulative IPC: 0.320444 (Simulation time: 0 hr 26 min 54 sec) 
Heartbeat CPU 0 instructions: 6000001 cycles: 14523696 heartbeat IPC: 0.0830098 cumulative IPC: 0.0830098 (Simulation time: 0 hr 27 min 0 sec) 
Heartbeat CPU 0 instructions: 8000000 cycles: 5410837 heartbeat IPC: 0.979193 cumulative IPC: 1.05641 (Simulation time: 0 hr 27 min 1 sec) 
Heartbeat CPU 0 instructions: 6000002 cycles: 6408094 heartbeat IPC: 0.308172 cumulative IPC: 0.308172 (Simulation time: 0 hr 27 min 5 sec) 
Heartbeat CPU 0 instructions: 8000000 cycles: 5089586 heartbeat IPC: 1.08333 cumulative IPC: 1.08417 (Simulation time: 0 hr 27 min 13 sec) 
Heartbeat CPU 0 instructions: 6000003 cycles: 7525638 heartbeat IPC: 0.218885 cumulative IPC: 0.218885 (Simulation time: 0 hr 27 min 27 sec) 
Heartbeat CPU 0 instructions: 6000000 cycles: 5526950 heartbeat IPC: 0.378305 cumulative IPC: 0.378303 (Simulation time: 0 hr 27 min 34 sec) 
Heartbeat CPU 0 instructions: 7000001 cycles: 5305651 heartbeat IPC: 0.718899 cumulative IPC: 0.725257 (Simulation time: 0 hr 27 min 45 sec) 
Heartbeat CPU 0 instructions: 6000000 cycles: 13588087 heartbeat IPC: 0.0901662 cumulative IPC: 0.0901662 (Simulation time: 0 hr 27 min 49 sec) 
Heartbeat CPU 0 instructions: 8000000 cycles: 7693226 heartbeat IPC: 0.517805 cumulative IPC: 0.519365 (Simulation time: 0 hr 27 min 51 sec) 
Heartbeat CPU 0 instructions: 8000000 cycles: 7325964 heartbeat IPC: 0.60606 cumulative IPC: 0.549376 (Simulation time: 0 hr 27 min 55 sec) 
Heartbeat CPU 0 instructions: 8000000 cycles: 6701467 heartbeat IPC: 0.818114 cumulative IPC: 0.70158 (Simulation time: 0 hr 28 min 13 sec) 
Heartbeat CPU 0 instructions: 8000000 cycles: 5218976 heartbeat IPC: 0.94009 cumulative IPC: 0.963128 (Simulation time: 0 hr 28 min 19 sec) 
Heartbeat CPU 0 instructions: 7000000 cycles: 7492454 heartbeat IPC: 0.733181 cumulative IPC: 0.726163 (Simulation time: 0 hr 28 min 25 sec) 
Heartbeat CPU 0 instructions: 7000003 cycles: 5173033 heartbeat IPC: 0.587839 cumulative IPC: 0.622869 (Simulation time: 0 hr 28 min 33 sec) 
Heartbeat CPU 0 instructions: 6000001 cycles: 12801970 heartbeat IPC: 0.105241 cumulative IPC: 0.105241 (Simulation time: 0 hr 28 min 35 sec) 
Heartbeat CPU 0 instructions: 7000002 cycles: 11484200 heartbeat IPC: 0.22614 cumulative IPC: 0.227452 (Simulation time: 0 hr 28 min 40 sec) 
Heartbeat CPU 0 instructions: 8000000 cycles: 7464681 heartbeat IPC: 0.616236 cumulative IPC: 0.614466 (Simulation time: 0 hr 28 min 44 sec) 
Heartbeat CPU 0 instructions: 10000002 cycles: 5048303 heartbeat IPC: 1.03503 cumulative IPC: 1.56831 (Simulation time: 0 hr 28 min 50 sec) 
Heartbeat CPU 0 instructions: 9000000 cycles: 9740562 heartbeat IPC: 0.917958 cumulative IPC: 0.515898 (Simulation time: 0 hr 28 min 52 sec) 
Heartbeat CPU 0 instructions: 8000000 cycles: 11314580 heartbeat IPC: 0.270273 cumulative IPC: 0.323393 (Simulation time: 0 hr 28 min 53 sec) 
Heartbeat CPU 0 instructions: 8000000 cycles: 6811548 heartbeat IPC: 0.587673 cumulative IPC: 0.618476 (Simulation time: 0 hr 28 min 54 sec) 
Heartbeat CPU 0 instructions: 7000001 cycles: 7001647 heartbeat IPC: 0.458724 cumulative IPC: 0.459708 (Simulation time: 0 hr 29 min 1 sec) 
Heartbeat CPU 0 instructions: 9000000 cycles: 13311121 heartbeat IPC: 0.356395 cumulative IPC: 0.347594 (Simulation time: 0 hr 29 min 3 sec) 
Heartbeat CPU 0 instructions: 8000000 cycles: 7273130 heartbeat IPC: 0.636264 cumulative IPC: 0.571336 (Simulation time: 0 hr 29 min 11 sec) 
Heartbeat CPU 0 instructions: 9000000 cycles: 7175680 heartbeat IPC: 0.768846 cumulative IPC: 0.79987 (Simulation time: 0 hr 29 min 24 sec) 
Heartbeat CPU 0 instructions: 9000000 cycles: 4658335 heartbeat IPC: 1.77532 cumulative IPC: 1.73058 (Simulation time: 0 hr 29 min 27 sec) 
Heartbeat CPU 0 instructions: 7000001 cycles: 6602001 heartbeat IPC: 0.558853 cumulative IPC: 0.554592 (Simulation time: 0 hr 29 min 28 sec) 
Heartbeat CPU 0 instructions: 10000000 cycles: 12732356 heartbeat IPC: 0.435465 cumulative IPC: 0.451847 (Simulation time: 0 hr 29 min 32 sec) 
Heartbeat CPU 0 instructions: 9000000 cycles: 13185184 heartbeat IPC: 0.498725 cumulative IPC: 0.345045 (Simulation time: 0 hr 29 min 33 sec) 
Heartbeat CPU 0 instructions: 9000001 cycles: 11879028 heartbeat IPC: 0.954602 cumulative IPC: 0.445183 (Simulation time: 0 hr 29 min 35 sec) 
Heartbeat CPU 0 instructions: 10000001 cycles: 4976169 heartbeat IPC: 2.1122 cumulative IPC: 2.10607 (Simulation time: 0 hr 29 min 37 sec) 
Heartbeat CPU 0 instructions: 7000000 cycles: 5956914 heartbeat IPC: 0.617675 cumulative IPC: 0.607742 (Simulation time: 0 hr 29 min 41 sec) 
Heartbeat CPU 0 instructions: 7000000 cycles: 24023775 heartbeat IPC: 0.068853 cumulative IPC: 0.0928179 (Simulation time: 0 hr 29 min 50 sec) 
Heartbeat CPU 0 instructions: 7000000 cycles: 6633688 heartbeat IPC: 0.516638 cumulative IPC: 0.514887 (Simulation time: 0 hr 30 min 1 sec) 
Heartbeat CPU 0 instructions: 8000000 cycles: 11446990 heartbeat IPC: 0.351707 cumulative IPC: 0.323424 (Simulation time: 0 hr 30 min 0 sec) 
Heartbeat CPU 0 instructions: 9000001 cycles: 8352416 heartbeat IPC: 0.659842 cumulative IPC: 0.619655 (Simulation time: 0 hr 30 min 8 sec) 
Heartbeat CPU 0 instructions: 8000000 cycles: 12991282 heartbeat IPC: 0.236583 cumulative IPC: 0.274736 (Simulation time: 0 hr 30 min 10 sec) 
Heartbeat CPU 0 instructions: 9000000 cycles: 5522095 heartbeat IPC: 1.14496 cumulative IPC: 1.14785 (Simulation time: 0 hr 30 min 12 sec) 
Heartbeat CPU 0 instructions: 6000000 cycles: 4998574 heartbeat IPC: 0.51529 cumulative IPC: 0.515289 (Simulation time: 0 hr 30 min 15 sec) 
Heartbeat CPU 0 instructions: 7000000 cycles: 7691774 heartbeat IPC: 0.412938 cumulative IPC: 0.416019 (Simulation time: 0 hr 30 min 18 sec) 
Heartbeat CPU 0 instructions: 7000000 cycles: 4855253 heartbeat IPC: 0.741889 cumulative IPC: 0.741912 (Simulation time: 0 hr 30 min 28 sec) 
Heartbeat CPU 0 instructions: 7000002 cycles: 8921433 heartbeat IPC: 0.327998 cumulative IPC: 0.347051 (Simulation time: 0 hr 30 min 30 sec) 
Heartbeat CPU 0 instructions: 10000003 cycles: 17555205 heartbeat IPC: 0.319036 cumulative IPC: 0.312923 (Simulation time: 0 hr 30 min 31 sec) 
Heartbeat CPU 0 instructions: 9000000 cycles: 6353546 heartbeat IPC: 1.06077 cumulative IPC: 1.0575 (Simulation time: 0 hr 30 min 40 sec) 
Heartbeat CPU 0 instructions: 9000001 cycles: 15404503 heartbeat IPC: 0.314826 cumulative IPC: 0.319021 (Simulation time: 0 hr 30 min 42 sec) 
Heartbeat CPU 0 instructions: 9000001 cycles: 6031576 heartbeat IPC: 1.06158 cumulative IPC: 1.07843 (Simulation time: 0 hr 30 min 44 sec) 
Heartbeat CPU 0 instructions: 7000002 cycles: 7729342 heartbeat IPC: 0.440703 cumulative IPC: 0.434234 (Simulation time: 0 hr 30 min 49 sec) 
Heartbeat CPU 0 instructions: 7000001 cycles: 6715237 heartbeat IPC: 0.542357 cumulative IPC: 0.540436 (Simulation time: 0 hr 30 min 49 sec) 
Heartbeat CPU 0 instructions: 7000000 cycles: 7086124 heartbeat IPC: 0.476986 cumulative IPC: 0.485303 (Simulation time: 0 hr 30 min 50 sec) 
Heartbeat CPU 0 instructions: 7000001 cycles: 7182668 heartbeat IPC: 0.475194 cumulative IPC: 0.474049 (Simulation time: 0 hr 31 min 8 sec) 
Heartbeat CPU 0 instructions: 7000000 cycles: 8383151 heartbeat IPC: 0.376653 cumulative IPC: 0.377498 (Simulation time: 0 hr 31 min 22 sec) 
Heartbeat CPU 0 instructions: 7000000 cycles: 7226538 heartbeat IPC: 0.469421 cumulative IPC: 0.470421 (Simulation time: 0 hr 31 min 23 sec) 
Heartbeat CPU 0 instructions: 9000003 cycles: 7999026 heartbeat IPC: 0.77068 cumulative IPC: 0.717667 (Simulation time: 0 hr 31 min 28 sec) 
Heartbeat CPU 0 instructions: 9000000 cycles: 6244656 heartbeat IPC: 0.974963 cumulative IPC: 0.96606 (Simulation time: 0 hr 31 min 34 sec) 
Heartbeat CPU 0 instructions: 9000003 cycles: 9219355 heartbeat IPC: 0.528154 cumulative IPC: 0.543913 (Simulation time: 0 hr 31 min 39 sec) 
Heartbeat CPU 0 instructions: 9000003 cycles: 9626203 heartbeat IPC: 0.517338 cumulative IPC: 0.518857 (Simulation time: 0 hr 31 min 44 sec) 
Heartbeat CPU 0 instructions: 7000002 cycles: 6788629 heartbeat IPC: 0.556094 cumulative IPC: 0.536708 (Simulation time: 0 hr 31 min 45 sec) 
Heartbeat CPU 0 instructions: 10000003 cycles: 16277358 heartbeat IPC: 0.337128 cumulative IPC: 0.345449 (Simulation time: 0 hr 31 min 56 sec) 
Heartbeat CPU 0 instructions: 8000000 cycles: 6688502 heartbeat IPC: 0.723143 cumulative IPC: 0.724551 (Simulation time: 0 hr 31 min 59 sec) 
Heartbeat CPU 0 instructions: 10000000 cycles: 10919842 heartbeat IPC: 0.847975 cumulative IPC: 0.559738 (Simulation time: 0 hr 32 min 0 sec) 
Heartbeat CPU 0 instructions: 11000001 cycles: 5663441 heartbeat IPC: 1.62565 cumulative IPC: 1.57758 (Simulation time: 0 hr 32 min 4 sec) 
Heartbeat CPU 0 instructions: 10000001 cycles: 8563866 heartbeat IPC: 0.720365 cumulative IPC: 0.782595 (Simulation time: 0 hr 32 min 7 sec) 
Heartbeat CPU 0 instructions: 8000000 cycles: 8860998 heartbeat IPC: 0.730704 cumulative IPC: 0.72767 (Simulation time: 0 hr 32 min 16 sec) 
Heartbeat CPU 0 instructions: 10000001 cycles: 5218925 heartbeat IPC: 1.78384 cumulative IPC: 1.74097 (Simulation time: 0 hr 32 min 24 sec) 
Heartbeat CPU 0 instructions: 11000002 cycles: 5453066 heartbeat IPC: 2.09689 cumulative IPC: 2.10453 (Simulation time: 0 hr 32 min 32 sec) 
Heartbeat CPU 0 instructions: 9000000 cycles: 8326577 heartbeat IPC: 0.660053 cumulative IPC: 0.628371 (Simulation time: 0 hr 32 min 37 sec) 
Heartbeat CPU 0 instructions: 7000000 cycles: 9727826 heartbeat IPC: 0.301229 cumulative IPC: 0.304661 (Simulation time: 0 hr 32 min 40 sec) 
Heartbeat CPU 0 instructions: 10000003 cycles: 12924775 heartbeat IPC: 0.956256 cumulative IPC: 0.498464 (Simulation time: 0 hr 32 min 41 sec) 
Heartbeat CPU 0 instructions: 7000001 cycles: 8150089 heartbeat IPC: 0.381223 cumulative IPC: 0.379757 (Simulation time: 0 hr 32 min 51 sec) 
Heartbeat CPU 0 instructions: 9000001 cycles: 9081310 heartbeat IPC: 0.618572 cumulative IPC: 0.615487 (Simulation time: 0 hr 32 min 50 sec) 
Heartbeat CPU 0 instructions: 7000000 cycles: 26606544 heartbeat IPC: 0.0827619 cumulative IPC: 0.0828856 (Simulation time: 0 hr 32 min 58 sec) 
Heartbeat CPU 0 instructions: 9000001 cycles: 14378527 heartbeat IPC: 0.326377 cumulative IPC: 0.324134 (Simulation time: 0 hr 33 min 3 sec) 
Heartbeat CPU 0 instructions: 9000003 cycles: 9112644 heartbeat IPC: 0.543624 cumulative IPC: 0.564146 (Simulation time: 0 hr 33 min 9 sec) 
Heartbeat CPU 0 instructions: 11000000 cycles: 15035892 heartbeat IPC: 0.434115 cumulative IPC: 0.448792 (Simulation time: 0 hr 33 min 17 sec) 
Heartbeat CPU 0 instructions: 7000003 cycles: 12466560 heartbeat IPC: 0.202391 cumulative IPC: 0.210315 (Simulation time: 0 hr 33 min 22 sec) 
[...]
LLC TOTAL     ACCESS:    1860274  HIT:     602463  MISS:    1257811
LLC LOAD      ACCESS:    1091618  HIT:     150375  MISS:     941243
LLC RFO       ACCESS:     126461  HIT:     114938  MISS:      11523
LLC PREFETCH  ACCESS:          0  HIT:          0  MISS:          0
LLC WRITEBACK ACCESS:     642195  HIT:     337150  MISS:     305045
Heartbeat CPU 0 instructions: 54000001 cycles: 130381085 heartbeat IPC: 0.376685 cumulative IPC: 0.38493 (Simulation time: 3 hr 34 min 45 sec) 
Heartbeat CPU 0 instructions: 47000000 cycles: 112417845 heartbeat IPC: 0.288246 cumulative IPC: 0.380924 (Simulation time: 3 hr 34 min 47 sec) 
Heartbeat CPU 0 instructions: 51000003 cycles: 197325001 heartbeat IPC: 0.245085 cumulative IPC: 0.236665 (Simulation time: 3 hr 34 min 46 sec) 
Heartbeat CPU 0 instructions: 52000000 cycles: 91906119 heartbeat IPC: 0.580053 cumulative IPC: 0.52254 (Simulation time: 3 hr 35 min 0 sec) 
Heartbeat CPU 0 instructions: 47000003 cycles: 139319043 heartbeat IPC: 0.307058 cumulative IPC: 0.30847 (Simulation time: 3 hr 35 min 0 sec) 
Heartbeat CPU 0 instructions: 54000003 cycles: 100222120 heartbeat IPC: 0.471161 cumulative IPC: 0.504301 (Simulation time: 3 hr 35 min 1 sec) 
Heartbeat CPU 0 instructions: 42000000 cycles: 439621366 heartbeat IPC: 0.11836 cumulative IPC: 0.0846402 (Simulation time: 3 hr 35 min 6 sec) 
Heartbeat CPU 0 instructions: 54000000 cycles: 237916020 heartbeat IPC: 0.273862 cumulative IPC: 0.208311 (Simulation time: 3 hr 35 min 10 sec) 
Heartbeat CPU 0 instructions: 49000000 cycles: 349695663 heartbeat IPC: 0.15738 cumulative IPC: 0.127022 (Simulation time: 3 hr 35 min 11 sec) 
Heartbeat CPU 0 instructions: 54000002 cycles: 121640265 heartbeat IPC: 0.528376 cumulative IPC: 0.412926 (Simulation time: 3 hr 35 min 13 sec) 
Heartbeat CPU 0 instructions: 55000000 cycles: 111989922 heartbeat IPC: 0.542218 cumulative IPC: 0.45902 (Simulation time: 3 hr 35 min 13 sec) 
Finished CPU 0 instructions: 50000002 cycles: 108927716 cummulative IPC: 0.45902 (Simulation time: 3 hr 35 min 13 sec) 

ChampSim completed all CPUs

Region of Interest Statistics

CPU 0 cummulative IPC: 0.45902 instructions: 50000002 cycles: 108927716
LLC TOTAL     ACCESS:    2288601  HIT:     747470  MISS:    1541131
LLC LOAD      ACCESS:    1470873  HIT:     505819  MISS:     965054
LLC RFO       ACCESS:     352037  HIT:      62199  MISS:     289838
LLC PREFETCH  ACCESS:          0  HIT:          0  MISS:          0
LLC WRITEBACK ACCESS:     465691  HIT:     179452  MISS:     286239
Heartbeat CPU 0 instructions: 41000000 cycles: 440179890 heartbeat IPC: 0.0834641 cumulative IPC: 0.0822514 (Simulation time: 3 hr 35 min 14 sec) 
Heartbeat CPU 0 instructions: 52000000 cycles: 121261016 heartbeat IPC: 0.384898 cumulative IPC: 0.397038 (Simulation time: 3 hr 35 min 23 sec) 
Heartbeat CPU 0 instructions: 55000001 cycles: 132821199 heartbeat IPC: 0.409817 cumulative IPC: 0.385398 (Simulation time: 3 hr 35 min 40 sec) 
Finished CPU 0 instructions: 50000000 cycles: 129736089 cummulative IPC: 0.385398 (Simulation time: 3 hr 35 min 40 sec) 

ChampSim completed all CPUs

Region of Interest Statistics

CPU 0 cummulative IPC: 0.385398 instructions: 50000000 cycles: 129736089
LLC TOTAL     ACCESS:     168334  HIT:     151725  MISS:      16609
LLC LOAD      ACCESS:     116139  HIT:     103246  MISS:      12893
LLC RFO       ACCESS:      15801  HIT:      12137  MISS:       3664
LLC PREFETCH  ACCESS:          0  HIT:          0  MISS:          0
LLC WRITEBACK ACCESS:      36394  HIT:      36342  MISS:         52
Heartbeat CPU 0 instructions: 52000000 cycles: 201769088 heartbeat IPC: 0.225017 cumulative IPC: 0.236404 (Simulation time: 3 hr 35 min 42 sec) 
Heartbeat CPU 0 instructions: 48000000 cycles: 116133269 heartbeat IPC: 0.269148 cumulative IPC: 0.37728 (Simulation time: 3 hr 35 min 44 sec) 
Heartbeat CPU 0 instructions: 54000002 cycles: 424332873 heartbeat IPC: 0.0660026 cumulative IPC: 0.116153 (Simulation time: 3 hr 35 min 45 sec) 
Heartbeat CPU 0 instructions: 55000001 cycles: 102566320 heartbeat IPC: 0.426584 cumulative IPC: 0.50247 (Simulation time: 3 hr 35 min 45 sec) 
Finished CPU 0 instructions: 50000003 cycles: 99508401 cummulative IPC: 0.50247 (Simulation time: 3 hr 35 min 45 sec) 

ChampSim completed all CPUs

Region of Interest Statistics

CPU 0 cummulative IPC: 0.50247 instructions: 50000003 cycles: 99508401
LLC TOTAL     ACCESS:    1892659  HIT:     689667  MISS:    1202992
LLC LOAD      ACCESS:    1251712  HIT:     441968  MISS:     809744
LLC RFO       ACCESS:     263692  HIT:     109709  MISS:     153983
LLC PREFETCH  ACCESS:          0  HIT:          0  MISS:          0
LLC WRITEBACK ACCESS:     377255  HIT:     137990  MISS:     239265
Heartbeat CPU 0 instructions: 55000000 cycles: 241589501 heartbeat IPC: 0.272221 cumulative IPC: 0.209294 (Simulation time: 3 hr 35 min 51 sec) 
Finished CPU 0 instructions: 50000000 cycles: 238898387 cummulative IPC: 0.209294 (Simulation time: 3 hr 35 min 51 sec) 

ChampSim completed all CPUs

Region of Interest Statistics

CPU 0 cummulative IPC: 0.209294 instructions: 50000000 cycles: 238898387
LLC TOTAL     ACCESS:    2080531  HIT:     316497  MISS:    1764034
LLC LOAD      ACCESS:    1001625  HIT:     144225  MISS:     857400
LLC RFO       ACCESS:     447114  HIT:      43991  MISS:     403123
LLC PREFETCH  ACCESS:          0  HIT:          0  MISS:          0
LLC WRITEBACK ACCESS:     631792  HIT:     128281  MISS:     503511
Heartbeat CPU 0 instructions: 48000000 cycles: 142567758 heartbeat IPC: 0.307813 cumulative IPC: 0.308455 (Simulation time: 3 hr 35 min 56 sec) 
Heartbeat CPU 0 instructions: 50000000 cycles: 356313609 heartbeat IPC: 0.151104 cumulative IPC: 0.127474 (Simulation time: 3 hr 35 min 56 sec) 
Heartbeat CPU 0 instructions: 55000001 cycles: 123527060 heartbeat IPC: 0.529999 cumulative IPC: 0.414759 (Simulation time: 3 hr 35 min 57 sec) 
Finished CPU 0 instructions: 50000000 cycles: 120552027 cummulative IPC: 0.414759 (Simulation time: 3 hr 35 min 57 sec) 

ChampSim completed all CPUs

Region of Interest Statistics

CPU 0 cummulative IPC: 0.414759 instructions: 50000000 cycles: 120552027
LLC TOTAL     ACCESS:     585937  HIT:     155595  MISS:     430342
LLC LOAD      ACCESS:     317736  HIT:      62179  MISS:     255557
LLC RFO       ACCESS:     134057  HIT:      24555  MISS:     109502
LLC PREFETCH  ACCESS:          0  HIT:          0  MISS:          0
LLC WRITEBACK ACCESS:     134144  HIT:      68861  MISS:      65283
Heartbeat CPU 0 instructions: 43000001 cycles: 450966917 heartbeat IPC: 0.0881404 cumulative IPC: 0.0847288 (Simulation time: 3 hr 35 min 58 sec) 
Heartbeat CPU 0 instructions: 53000001 cycles: 93634087 heartbeat IPC: 0.578715 cumulative IPC: 0.523599 (Simulation time: 3 hr 36 min 2 sec) 
Heartbeat CPU 0 instructions: 53000000 cycles: 123844314 heartbeat IPC: 0.387102 cumulative IPC: 0.396825 (Simulation time: 3 hr 36 min 4 sec) 
Heartbeat CPU 0 instructions: 42000000 cycles: 452170367 heartbeat IPC: 0.0833995 cumulative IPC: 0.082282 (Simulation time: 3 hr 36 min 7 sec) 
Heartbeat CPU 0 instructions: 55000002 cycles: 429866048 heartbeat IPC: 0.180728 cumulative IPC: 0.116989 (Simulation time: 3 hr 36 min 18 sec) 
Finished CPU 0 instructions: 50000001 cycles: 427389789 cummulative IPC: 0.116989 (Simulation time: 3 hr 36 min 18 sec) 

ChampSim completed all CPUs

Region of Interest Statistics

CPU 0 cummulative IPC: 0.116989 instructions: 50000001 cycles: 427389789
LLC TOTAL     ACCESS:    5613623  HIT:    2546441  MISS:    3067182
LLC LOAD      ACCESS:    4493020  HIT:    1871562  MISS:    2621458
LLC RFO       ACCESS:      98837  HIT:      68862  MISS:      29975
LLC PREFETCH  ACCESS:          0  HIT:          0  MISS:          0
LLC WRITEBACK ACCESS:    1021766  HIT:     606017  MISS:     415749
Heartbeat CPU 0 instructions: 53000000 cycles: 206658326 heartbeat IPC: 0.204531 cumulative IPC: 0.235639 (Simulation time: 3 hr 36 min 18 sec) 
Heartbeat CPU 0 instructions: 49000000 cycles: 119877517 heartbeat IPC: 0.267076 cumulative IPC: 0.373775 (Simulation time: 3 hr 36 min 29 sec) 
Heartbeat CPU 0 instructions: 51000000 cycles: 363734833 heartbeat IPC: 0.134749 cumulative IPC: 0.127624 (Simulation time: 3 hr 36 min 33 sec) 
Heartbeat CPU 0 instructions: 54000000 cycles: 126470935 heartbeat IPC: 0.380717 cumulative IPC: 0.396483 (Simulation time: 3 hr 36 min 34 sec) 
Heartbeat CPU 0 instructions: 49000002 cycles: 145783791 heartbeat IPC: 0.310943 cumulative IPC: 0.308511 (Simulation time: 3 hr 36 min 39 sec) 
Heartbeat CPU 0 instructions: 44000000 cycles: 463461155 heartbeat IPC: 0.0800368 cumulative IPC: 0.0846016 (Simulation time: 3 hr 36 min 42 sec) 
Heartbeat CPU 0 instructions: 43000000 cycles: 464218623 heartbeat IPC: 0.0829996 cumulative IPC: 0.0823008 (Simulation time: 3 hr 36 min 46 sec) 
Heartbeat CPU 0 instructions: 54000001 cycles: 95398557 heartbeat IPC: 0.566742 cumulative IPC: 0.524414 (Simulation time: 3 hr 36 min 48 sec) 
Heartbeat CPU 0 instructions: 54000002 cycles: 211222063 heartbeat IPC: 0.219119 cumulative IPC: 0.235277 (Simulation time: 3 hr 36 min 49 sec) 
Heartbeat CPU 0 instructions: 55000003 cycles: 129043136 heartbeat IPC: 0.388773 cumulative IPC: 0.396326 (Simulation time: 3 hr 37 min 1 sec) 
Finished CPU 0 instructions: 50000000 cycles: 126158830 cummulative IPC: 0.396326 (Simulation time: 3 hr 37 min 1 sec) 

ChampSim completed all CPUs

Region of Interest Statistics

CPU 0 cummulative IPC: 0.396326 instructions: 50000000 cycles: 126158830
LLC TOTAL     ACCESS:      74305  HIT:      56006  MISS:      18299
LLC LOAD      ACCESS:      49411  HIT:      36288  MISS:      13123
LLC RFO       ACCESS:       9235  HIT:       4059  MISS:       5176
LLC PREFETCH  ACCESS:          0  HIT:          0  MISS:          0
LLC WRITEBACK ACCESS:      15659  HIT:      15659  MISS:          0
Heartbeat CPU 0 instructions: 52000000 cycles: 372490625 heartbeat IPC: 0.11421 cumulative IPC: 0.127305 (Simulation time: 3 hr 37 min 3 sec) 
Heartbeat CPU 0 instructions: 50000001 cycles: 123615398 heartbeat IPC: 0.267532 cumulative IPC: 0.370505 (Simulation time: 3 hr 37 min 5 sec) 
Heartbeat CPU 0 instructions: 45000000 cycles: 470842570 heartbeat IPC: 0.135475 cumulative IPC: 0.0854034 (Simulation time: 3 hr 37 min 8 sec) 
Heartbeat CPU 0 instructions: 50000001 cycles: 149017264 heartbeat IPC: 0.309265 cumulative IPC: 0.308527 (Simulation time: 3 hr 37 min 10 sec) 
Heartbeat CPU 0 instructions: 44000000 cycles: 476312473 heartbeat IPC: 0.0826867 cumulative IPC: 0.0823106 (Simulation time: 3 hr 37 min 17 sec) 
Heartbeat CPU 0 instructions: 55000000 cycles: 97099470 heartbeat IPC: 0.587919 cumulative IPC: 0.525549 (Simulation time: 3 hr 37 min 17 sec) 
Finished CPU 0 instructions: 50000000 cycles: 95138579 cummulative IPC: 0.525549 (Simulation time: 3 hr 37 min 17 sec) 

ChampSim completed all CPUs

Region of Interest Statistics

CPU 0 cummulative IPC: 0.525549 instructions: 50000000 cycles: 95138579
LLC TOTAL     ACCESS:    3106933  HIT:     177529  MISS:    2929404
LLC LOAD      ACCESS:     435316  HIT:         47  MISS:     435269
LLC RFO       ACCESS:    1335782  HIT:      81051  MISS:    1254731
LLC PREFETCH  ACCESS:          0  HIT:          0  MISS:          0
LLC WRITEBACK ACCESS:    1335835  HIT:      96431  MISS:    1239404
Heartbeat CPU 0 instructions: 55000001 cycles: 215480151 heartbeat IPC: 0.234847 cumulative IPC: 0.235269 (Simulation time: 3 hr 37 min 16 sec) 
Finished CPU 0 instructions: 50000001 cycles: 212523120 cummulative IPC: 0.235269 (Simulation time: 3 hr 37 min 16 sec) 

ChampSim completed all CPUs

Region of Interest Statistics

CPU 0 cummulative IPC: 0.235269 instructions: 50000001 cycles: 212523120
LLC TOTAL     ACCESS:    1600851  HIT:     560531  MISS:    1040320
LLC LOAD      ACCESS:     958866  HIT:     243396  MISS:     715470
LLC RFO       ACCESS:     163927  HIT:      40501  MISS:     123426
LLC PREFETCH  ACCESS:          0  HIT:          0  MISS:          0
LLC WRITEBACK ACCESS:     478058  HIT:     276634  MISS:     201424
Heartbeat CPU 0 instructions: 53000000 cycles: 379415010 heartbeat IPC: 0.144417 cumulative IPC: 0.127621 (Simulation time: 3 hr 37 min 25 sec) 
Heartbeat CPU 0 instructions: 51000000 cycles: 127346518 heartbeat IPC: 0.268016 cumulative IPC: 0.36745 (Simulation time: 3 hr 37 min 32 sec) 
Heartbeat CPU 0 instructions: 46000002 cycles: 481687606 heartbeat IPC: 0.0922083 cumulative IPC: 0.0855574 (Simulation time: 3 hr 37 min 33 sec) 
Heartbeat CPU 0 instructions: 51000000 cycles: 152217654 heartbeat IPC: 0.312462 cumulative IPC: 0.308612 (Simulation time: 3 hr 37 min 33 sec) 
Heartbeat CPU 0 instructions: 45000001 cycles: 488345883 heartbeat IPC: 0.083102 cumulative IPC: 0.0823302 (Simulation time: 3 hr 37 min 41 sec) 
Heartbeat CPU 0 instructions: 54000000 cycles: 387156942 heartbeat IPC: 0.129167 cumulative IPC: 0.127652 (Simulation time: 3 hr 37 min 43 sec) 
Heartbeat CPU 0 instructions: 52000000 cycles: 155426526 heartbeat IPC: 0.311636 cumulative IPC: 0.308676 (Simulation time: 3 hr 37 min 56 sec) 
Heartbeat CPU 0 instructions: 52000000 cycles: 131082511 heartbeat IPC: 0.267666 cumulative IPC: 0.364559 (Simulation time: 3 hr 37 min 56 sec) 
Heartbeat CPU 0 instructions: 47000002 cycles: 494414023 heartbeat IPC: 0.0785767 cumulative IPC: 0.0853768 (Simulation time: 3 hr 37 min 57 sec) 
Heartbeat CPU 0 instructions: 55000001 cycles: 395214914 heartbeat IPC: 0.124101 cumulative IPC: 0.127579 (Simulation time: 3 hr 38 min 1 sec) 
Finished CPU 0 instructions: 50000000 cycles: 391914950 cummulative IPC: 0.127579 (Simulation time: 3 hr 38 min 1 sec) 

ChampSim completed all CPUs

Region of Interest Statistics

CPU 0 cummulative IPC: 0.127579 instructions: 50000000 cycles: 391914950
LLC TOTAL     ACCESS:    4073915  HIT:    1633313  MISS:    2440602
LLC LOAD      ACCESS:    1208958  HIT:     290283  MISS:     918675
LLC RFO       ACCESS:    1207737  HIT:     527838  MISS:     679899
LLC PREFETCH  ACCESS:          0  HIT:          0  MISS:          0
LLC WRITEBACK ACCESS:    1657220  HIT:     815192  MISS:     842028
Heartbeat CPU 0 instructions: 46000000 cycles: 500355378 heartbeat IPC: 0.0832674 cumulative IPC: 0.0823528 (Simulation time: 3 hr 38 min 3 sec) 
Heartbeat CPU 0 instructions: 48000000 cycles: 502115167 heartbeat IPC: 0.129851 cumulative IPC: 0.0860623 (Simulation time: 3 hr 38 min 13 sec) 
Heartbeat CPU 0 instructions: 53000000 cycles: 158716934 heartbeat IPC: 0.303914 cumulative IPC: 0.308575 (Simulation time: 3 hr 38 min 13 sec) 
Heartbeat CPU 0 instructions: 53000000 cycles: 134889366 heartbeat IPC: 0.262684 cumulative IPC: 0.361637 (Simulation time: 3 hr 38 min 17 sec) 
Heartbeat CPU 0 instructions: 47000002 cycles: 512339983 heartbeat IPC: 0.0834405 cumulative IPC: 0.0823784 (Simulation time: 3 hr 38 min 22 sec) 
Heartbeat CPU 0 instructions: 54000000 cycles: 161908311 heartbeat IPC: 0.313344 cumulative IPC: 0.308671 (Simulation time: 3 hr 38 min 29 sec) 
Heartbeat CPU 0 instructions: 49000003 cycles: 512984009 heartbeat IPC: 0.0920064 cumulative IPC: 0.0861888 (Simulation time: 3 hr 38 min 30 sec) 
Heartbeat CPU 0 instructions: 54000001 cycles: 137356293 heartbeat IPC: 0.405363 cumulative IPC: 0.362435 (Simulation time: 3 hr 38 min 32 sec) 
Heartbeat CPU 0 instructions: 48000000 cycles: 524031155 heartbeat IPC: 0.0855345 cumulative IPC: 0.0824491 (Simulation time: 3 hr 38 min 39 sec) 
Heartbeat CPU 0 instructions: 55000002 cycles: 165092142 heartbeat IPC: 0.314088 cumulative IPC: 0.308777 (Simulation time: 3 hr 38 min 43 sec) 
Finished CPU 0 instructions: 50000003 cycles: 161928991 cummulative IPC: 0.308777 (Simulation time: 3 hr 38 min 43 sec) 

ChampSim completed all CPUs

Region of Interest Statistics

CPU 0 cummulative IPC: 0.308777 instructions: 50000003 cycles: 161928991
LLC TOTAL     ACCESS:    2633442  HIT:     267747  MISS:    2365695
LLC LOAD      ACCESS:    1915756  HIT:     265733  MISS:    1650023
LLC RFO       ACCESS:          0  HIT:          0  MISS:          0
LLC PREFETCH  ACCESS:          0  HIT:          0  MISS:          0
LLC WRITEBACK ACCESS:     717686  HIT:       2014  MISS:     715672
Heartbeat CPU 0 instructions: 55000002 cycles: 139688026 heartbeat IPC: 0.428866 cumulative IPC: 0.363561 (Simulation time: 3 hr 38 min 45 sec) 
Finished CPU 0 instructions: 50000001 cycles: 137528510 cummulative IPC: 0.363561 (Simulation time: 3 hr 38 min 45 sec) 

ChampSim completed all CPUs

Region of Interest Statistics

CPU 0 cummulative IPC: 0.363561 instructions: 50000001 cycles: 137528510
LLC TOTAL     ACCESS:    1605188  HIT:     754427  MISS:     850761
LLC LOAD      ACCESS:    1395818  HIT:     555337  MISS:     840481
LLC RFO       ACCESS:      12669  HIT:       2798  MISS:       9871
LLC PREFETCH  ACCESS:          0  HIT:          0  MISS:          0
LLC WRITEBACK ACCESS:     196701  HIT:     196292  MISS:        409
Heartbeat CPU 0 instructions: 50000000 cycles: 525800023 heartbeat IPC: 0.0780271 cumulative IPC: 0.0859889 (Simulation time: 3 hr 38 min 47 sec) 
Heartbeat CPU 0 instructions: 49000000 cycles: 536153115 heartbeat IPC: 0.0824949 cumulative IPC: 0.0824502 (Simulation time: 3 hr 38 min 51 sec) 
Heartbeat CPU 0 instructions: 51000000 cycles: 533202547 heartbeat IPC: 0.135089 cumulative IPC: 0.0866738 (Simulation time: 3 hr 38 min 55 sec) 
Heartbeat CPU 0 instructions: 50000002 cycles: 548242040 heartbeat IPC: 0.0827205 cumulative IPC: 0.0824562 (Simulation time: 3 hr 39 min 1 sec) 
Heartbeat CPU 0 instructions: 52000000 cycles: 543459462 heartbeat IPC: 0.0974952 cumulative IPC: 0.086879 (Simulation time: 3 hr 39 min 4 sec) 
Heartbeat CPU 0 instructions: 51000002 cycles: 560306915 heartbeat IPC: 0.0828852 cumulative IPC: 0.0824654 (Simulation time: 3 hr 39 min 9 sec) 
Heartbeat CPU 0 instructions: 53000000 cycles: 557116406 heartbeat IPC: 0.0732228 cumulative IPC: 0.0865427 (Simulation time: 3 hr 39 min 13 sec) 
Heartbeat CPU 0 instructions: 52000000 cycles: 572293220 heartbeat IPC: 0.0834284 cumulative IPC: 0.0824857 (Simulation time: 3 hr 39 min 16 sec) 
Heartbeat CPU 0 instructions: 54000000 cycles: 564772262 heartbeat IPC: 0.130619 cumulative IPC: 0.0871428 (Simulation time: 3 hr 39 min 18 sec) 
Heartbeat CPU 0 instructions: 53000000 cycles: 584411534 heartbeat IPC: 0.0825197 cumulative IPC: 0.0824864 (Simulation time: 3 hr 39 min 22 sec) 
Heartbeat CPU 0 instructions: 55000000 cycles: 573810226 heartbeat IPC: 0.110644 cumulative IPC: 0.0875146 (Simulation time: 3 hr 39 min 24 sec) 
Finished CPU 0 instructions: 50000003 cycles: 571333312 cummulative IPC: 0.0875146 (Simulation time: 3 hr 39 min 24 sec) 

ChampSim completed all CPUs

Region of Interest Statistics

CPU 0 cummulative IPC: 0.0875146 instructions: 50000003 cycles: 571333312
LLC TOTAL     ACCESS:    6474218  HIT:    3217715  MISS:    3256503
LLC LOAD      ACCESS:    5697360  HIT:    2729033  MISS:    2968327
LLC RFO       ACCESS:      65905  HIT:      40541  MISS:      25364
LLC PREFETCH  ACCESS:          0  HIT:          0  MISS:          0
LLC WRITEBACK ACCESS:     710953  HIT:     448141  MISS:     262812
Heartbeat CPU 0 instructions: 54000000 cycles: 596388671 heartbeat IPC: 0.0834924 cumulative IPC: 0.0825067 (Simulation time: 3 hr 39 min 28 sec) 
Heartbeat CPU 0 instructions: 55000000 cycles: 608416344 heartbeat IPC: 0.0831416 cumulative IPC: 0.0825193 (Simulation time: 3 hr 39 min 33 sec) 
Finished CPU 0 instructions: 50000000 cycles: 605918869 cummulative IPC: 0.0825193 (Simulation time: 3 hr 39 min 33 sec) 

ChampSim completed all CPUs

Region of Interest Statistics

CPU 0 cummulative IPC: 0.0825193 instructions: 50000000 cycles: 605918869
LLC TOTAL     ACCESS:    7409425  HIT:    3957973  MISS:    3451452
LLC LOAD      ACCESS:    7242652  HIT:    3851752  MISS:    3390900
LLC RFO       ACCESS:      12947  HIT:       8668  MISS:       4279
LLC PREFETCH  ACCESS:          0  HIT:          0  MISS:          0
LLC WRITEBACK ACCESS:     153826  HIT:      97553  MISS:      56273
