
*** ChampSim Multicore Out-of-Order Simulator ***

Warmup Instructions: 5000000
Simulation Instructions: 50000000
Configuration: 1
Number of CPUs: 1
LLC sets: 2048
LLC ways: 16
Off-chip DRAM Channels: 1 Width: 64-bit Data Rate: 1600 MT/s


*** ChampSim Multicore Out-of-Order Simulator ***

Warmup Instructions: 5000000
Simulation Instructions: 50000000
Configuration: 1
Number of CPUs: 1
LLC sets: 2048
LLC ways: 16
Off-chip DRAM Channels: 1 Width: 64-bit Data Rate: 1600 MT/s


*** ChampSim Multicore Out-of-Order Simulator ***

Warmup Instructions: 5000000
Simulation Instructions: 50000000
Configuration: 1
Number of CPUs: 1
LLC sets: 2048
LLC ways: 16

Off-chip DRAM Channels: 1 Width: 64-bit Data Rate: 1600 MT/s

*** ChampSim Multicore Out-of-Order Simulator ***

Warmup Instructions: 5000000
Simulation Instructions: 50000000
Configuration: 1
Number of CPUs: 1
LLC sets: 2048
LLC ways: 16
Off-chip DRAM Channels: 1 Width: 64-bit Data Rate: 1600 MT/s


*** ChampSim Multicore Out-of-Order Simulator ***

Warmup Instructions: 5000000
Simulation Instructions: 50000000
Configuration: 1
Number of CPUs: 1
LLC sets: 2048
LLC ways: 16
Off-chip DRAM Channels: 1 Width: 64-bit Data Rate: 1600 MT/s


*** ChampSim Multicore Out-of-Order Simulator ***

Warmup Instructions: 5000000
Simulation Instructions: 50000000
Configuration: 1
Number of CPUs: 1
LLC sets: 2048
LLC ways: 16
Off-chip DRAM Channels: 1 Width: 64-bit Data Rate: 1600 MT/s


*** ChampSim Multicore Out-of-Order Simulator ***

Warmup Instructions: 5000000
Simulation Instructions: 50000000
Configuration: 1
Number of CPUs: 1
LLC sets: 2048
LLC ways: 16
Off-chip DRAM Channels: 1 Width: 64-bit Data Rate: 1600 MT/s


*** ChampSim Multicore Out-of-Order Simulator ***

Warmup Instructions: 5000000
Simulation Instructions: 50000000
Configuration: 1
Number of CPUs: 1
LLC sets: 2048
LLC ways: 16
Off-chip DRAM Channels: 1 Width: 64-bit Data Rate: 1600 MT/s


*** ChampSim Multicore Out-of-Order Simulator ***

Warmup Instructions: 5000000
Simulation Instructions: 50000000
Configuration: 1
Number of CPUs: 1
LLC sets: 2048
LLC ways: 16


Off-chip DRAM Channels: 1 Width: 64-bit Data Rate: 1600 MT/s


*** ChampSim Multicore Out-of-Order Simulator ***

Warmup Instructions: 5000000
Simulation Instructions: 50000000
Configuration: 1
Number of CPUs: 1
LLC sets: 2048
LLC ways: 16
Off-chip DRAM Channels: 1 Width: 64-bit Data Rate: 1600 MT/s


*** ChampSim Multicore Out-of-Order Simulator ***

Warmup Instructions: 5000000
Simulation Instructions: 50000000
Configuration: 1
Number of CPUs: 1
LLC sets: 2048
LLC ways: 16
Off-chip DRAM Channels: 1 Width: 64-bit Data Rate: 1600 MT/s



*** ChampSim Multicore Out-of-Order Simulator ***

*** ChampSim Multicore Out-of-Order Simulator ***

Warmup Instructions: 5000000
Simulation Instructions: 50000000
Configuration: 1

Warmup Instructions: 5000000
Number of CPUs: 1
Simulation Instructions: 50000000
LLC sets: 2048
Configuration: 1
LLC ways: 16
Number of CPUs: 1
LLC sets: 2048
LLC ways: 16
Off-chip DRAM Channels: 1 Width: 64-bit Data Rate: 1600 MT/s

Off-chip DRAM Channels: 1 Width: 64-bit Data Rate: 1600 MT/s

*** ChampSim Multicore Out-of-Order Simulator ***



*** ChampSim Multicore Out-of-Order Simulator ***

*** ChampSim Multicore Out-of-Order Simulator ***

*** ChampSim Multicore Out-of-Order Simulator ***
Warmup Instructions: 5000000

Simulation Instructions: 50000000
Configuration: 1
Number of CPUs: 1
LLC sets: 2048
LLC ways: 16

Warmup Instructions: 5000000
Simulation Instructions: 50000000
*** ChampSim Multicore Out-of-Order Simulator ***

Configuration: 1
Warmup Instructions: 5000000
Number of CPUs: 1
Simulation Instructions: 50000000
LLC sets: 2048
Configuration: 1
LLC ways: 16
Number of CPUs: 1
LLC sets: 2048
LLC ways: 16
Off-chip DRAM Channels: 1 Width: 64-bit Data Rate: 1600 MT/s

Off-chip DRAM Channels: 1 Width: 64-bit Data Rate: 1600 MT/s


*** ChampSim Multicore Out-of-Order Simulator ***

Warmup Instructions: 5000000
Simulation Instructions: 50000000
Configuration: 1
Number of CPUs: 1
LLC sets: 2048
LLC ways: 16
Off-chip DRAM Channels: 1 Width: 64-bit Data Rate: 1600 MT/s


*** ChampSim Multicore Out-of-Order Simulator ***


Warmup Instructions: 5000000
Simulation Instructions: 50000000
Configuration: 1
Number of CPUs: 1
LLC sets: 2048
*** ChampSim Multicore Out-of-Order Simulator ***
LLC ways: 16

Off-chip DRAM Channels: 1 Width: 64-bit Data Rate: 1600 MT/s

Warmup Instructions: 5000000
Simulation Instructions: 50000000
Configuration: 1
Number of CPUs: 1
LLC sets: 2048
LLC ways: 16
Off-chip DRAM Channels: 1 Width: 64-bit Data Rate: 1600 MT/s

Warmup Instructions: 5000000
Simulation Instructions: 50000000
Configuration: 1
Number of CPUs: 1
LLC sets: 2048
LLC ways: 16
*** ChampSim Multicore Out-of-Order Simulator ***

Warmup Instructions: 5000000
Warmup Instructions: 5000000
Simulation Instructions: 50000000
Configuration: 1
Number of CPUs: 1
Simulation Instructions: 50000000
LLC sets: 2048
LLC ways: 16
Configuration: 1
Number of CPUs: 1
Off-chip DRAM Channels: 1 Width: 64-bit Data Rate: 1600 MT/s

LLC sets: 2048
LLC ways: 16
Off-chip DRAM Channels: 1 Width: 64-bit Data Rate: 1600 MT/s

Off-chip DRAM Channels: 1 Width: 64-bit Data Rate: 1600 MT/s


*** ChampSim Multicore Out-of-Order Simulator ***



*** ChampSim Multicore Out-of-Order Simulator ***

*** ChampSim Multicore Out-of-Order Simulator ***
Warmup Instructions: 5000000

Simulation Instructions: 50000000
Warmup Instructions: 5000000
Simulation Instructions: 50000000
Configuration: 1
Configuration: 1
Number of CPUs: 1
Number of CPUs: 1
LLC sets: 2048
LLC sets: 2048
Warmup Instructions: 5000000
LLC ways: 16
LLC ways: 16
Simulation Instructions: 50000000
Configuration: 1
Number of CPUs: 1
LLC sets: 2048
LLC ways: 16
Off-chip DRAM Channels: 1 Width: 64-bit Data Rate: 1600 MT/s

Off-chip DRAM Channels: 1 Width: 64-bit Data Rate: 1600 MT/s


*** ChampSim Multicore Out-of-Order Simulator ***

Warmup Instructions: 5000000
Simulation Instructions: 50000000
Configuration: 1
Number of CPUs: 1
LLC sets: 2048
LLC ways: 16

*** ChampSim Multicore Out-of-Order Simulator ***

Warmup Instructions: 5000000
Simulation Instructions: 50000000
Configuration: 1
Number of CPUs: 1
LLC sets: 2048
LLC ways: 16
Off-chip DRAM Channels: 1 Width: 64-bit Data Rate: 1600 MT/s


Off-chip DRAM Channels: 1 Width: 64-bit Data Rate: 1600 MT/s

Off-chip DRAM Channels: 1 Width: 64-bit Data Rate: 1600 MT/s


*** ChampSim Multicore Out-of-Order Simulator ***

Warmup Instructions: 5000000
Simulation Instructions: 50000000
Configuration: 1
Number of CPUs: 1
LLC sets: 2048
LLC ways: 16
Off-chip DRAM Channels: 1 Width: 64-bit Data Rate: 1600 MT/s

Off-chip DRAM Channels: 1 Width: 64-bit Data Rate: 1600 MT/s

*** ChampSim Multicore Out-of-Order Simulator ***

Warmup Instructions: 5000000
Simulation Instructions: 50000000
Configuration: 1
Number of CPUs: 1
LLC sets: 2048
LLC ways: 16



*** ChampSim Multicore Out-of-Order Simulator ***
*** ChampSim Multicore Out-of-Order Simulator ***
*** ChampSim Multicore Out-of-Order Simulator ***



Warmup Instructions: 5000000
Warmup Instructions: 5000000
Warmup Instructions: 5000000
Simulation Instructions: 50000000
Simulation Instructions: 50000000
Simulation Instructions: 50000000
Configuration: 1
Configuration: 1
Configuration: 1
Number of CPUs: 1
Number of CPUs: 1
Number of CPUs: 1
Off-chip DRAM Channels: 1 Width: 64-bit Data Rate: 1600 MT/s


*** ChampSim Multicore Out-of-Order Simulator ***

Warmup Instructions: 5000000
Simulation Instructions: 50000000
Configuration: 1
Number of CPUs: 1
LLC sets: 2048
LLC ways: 16
Off-chip DRAM Channels: 1 Width: 64-bit Data Rate: 1600 MT/s


*** ChampSim Multicore Out-of-Order Simulator ***

Warmup Instructions: 5000000
Simulation Instructions: 50000000
Configuration: 1
Number of CPUs: 1
LLC sets: 2048
LLC ways: 16
Off-chip DRAM Channels: 1 Width: 64-bit Data Rate: 1600 MT/s

LLC sets: 2048
LLC ways: 16
Off-chip DRAM Channels: 1 Width: 64-bit Data Rate: 1600 MT/s


*** ChampSim Multicore Out-of-Order Simulator ***

Warmup Instructions: 5000000
Simulation Instructions: 50000000
Configuration: 1
Number of CPUs: 1
LLC sets: 2048
LLC ways: 16
Off-chip DRAM Channels: 1 Width: 64-bit Data Rate: 1600 MT/s

LLC sets: 2048
LLC ways: 16
LLC sets: 2048
Off-chip DRAM Channels: 1 Width: 64-bit Data Rate: 1600 MT/s

LLC ways: 16
Off-chip DRAM Channels: 1 Width: 64-bit Data Rate: 1600 MT/s


*** ChampSim Multicore Out-of-Order Simulator ***

Warmup Instructions: 5000000
Simulation Instructions: 50000000
Configuration: 1
Number of CPUs: 1
LLC sets: 2048
LLC ways: 16
Off-chip DRAM Channels: 1 Width: 64-bit Data Rate: 1600 MT/s


*** ChampSim Multicore Out-of-Order Simulator ***

Warmup Instructions: 5000000
Simulation Instructions: 50000000
Configuration: 1
Number of CPUs: 1
LLC sets: 2048
LLC ways: 16
Off-chip DRAM Channels: 1 Width: 64-bit Data Rate: 1600 MT/s


*** ChampSim Multicore Out-of-Order Simulator ***

Warmup Instructions: 5000000
Simulation Instructions: 50000000
Configuration: 1
Number of CPUs: 1
LLC sets: 2048
LLC ways: 16
Off-chip DRAM Channels: 1 Width: 64-bit Data Rate: 1600 MT/s


*** ChampSim Multicore Out-of-Order Simulator ***

Warmup Instructions: 5000000
Simulation Instructions: 50000000
Configuration: 1
Number of CPUs: 1
LLC sets: 2048
LLC ways: 16
Off-chip DRAM Channels: 1 Width: 64-bit Data Rate: 1600 MT/s


*** ChampSim Multicore Out-of-Order Simulator ***

Warmup Instructions: 5000000
Simulation Instructions: 50000000
Configuration: 1
Number of CPUs: 1
LLC sets: 2048
LLC ways: 16
Off-chip DRAM Channels: 1 Width: 64-bit Data Rate: 1600 MT/s


*** ChampSim Multicore Out-of-Order Simulator ***


Warmup Instructions: 5000000
*** ChampSim Multicore Out-of-Order Simulator ***
Simulation Instructions: 50000000

Configuration: 1
Number of CPUs: 1
LLC sets: 2048
LLC ways: 16
Warmup Instructions: 5000000
Simulation Instructions: 50000000
Configuration: 1
Number of CPUs: 1
LLC sets: 2048
LLC ways: 16
Off-chip DRAM Channels: 1 Width: 64-bit Data Rate: 1600 MT/s


*** ChampSim Multicore Out-of-Order Simulator ***

Warmup Instructions: 5000000
Simulation Instructions: 50000000
Configuration: 1
Number of CPUs: 1
LLC sets: 2048
LLC ways: 16
Off-chip DRAM Channels: 1 Width: 64-bit Data Rate: 1600 MT/s


*** ChampSim Multicore Out-of-Order Simulator ***

Warmup Instructions: 5000000
Simulation Instructions: 50000000
Configuration: 1
Number of CPUs: 1
LLC sets: 2048
LLC ways: 16
Off-chip DRAM Channels: 1 Width: 64-bit Data Rate: 1600 MT/s

Off-chip DRAM Channels: 1 Width: 64-bit Data Rate: 1600 MT/s


*** ChampSim Multicore Out-of-Order Simulator ***

Warmup Instructions: 5000000
Simulation Instructions: 50000000
Configuration: 1
Number of CPUs: 1
LLC sets: 2048
LLC ways: 16
Off-chip DRAM Channels: 1 Width: 64-bit Data Rate: 1600 MT/s


*** ChampSim Multicore Out-of-Order Simulator ***

Warmup Instructions: 5000000
Simulation Instructions: 50000000
Configuration: 1
Number of CPUs: 1
LLC sets: 2048
LLC ways: 16
Off-chip DRAM Channels: 1 Width: 64-bit Data Rate: 1600 MT/s


*** ChampSim Multicore Out-of-Order Simulator ***

Warmup Instructions: 5000000
Simulation Instructions: 50000000
Configuration: 1
Number of CPUs: 1
LLC sets: 2048
LLC ways: 16
Off-chip DRAM Channels: 1 Width: 64-bit Data Rate: 1600 MT/s


*** ChampSim Multicore Out-of-Order Simulator ***

Warmup Instructions: 5000000
Simulation Instructions: 50000000
Configuration: 1
Number of CPUs: 1
LLC sets: 2048
LLC ways: 16
Off-chip DRAM Channels: 1 Width: 64-bit Data Rate: 1600 MT/s


*** ChampSim Multicore Out-of-Order Simulator ***

Warmup Instructions: 5000000
Simulation Instructions: 50000000
Configuration: 1
Number of CPUs: 1
LLC sets: 2048
LLC ways: 16
Off-chip DRAM Channels: 1 Width: 64-bit Data Rate: 1600 MT/s


*** ChampSim Multicore Out-of-Order Simulator ***

Warmup Instructions: 5000000
Simulation Instructions: 50000000
Configuration: 1
Number of CPUs: 1
LLC sets: 2048
LLC ways: 16
Off-chip DRAM Channels: 1 Width: 64-bit Data Rate: 1600 MT/s


*** ChampSim Multicore Out-of-Order Simulator ***

Warmup Instructions: 5000000
Simulation Instructions: 50000000
Configuration: 1
Number of CPUs: 1
LLC sets: 2048
LLC ways: 16
Off-chip DRAM Channels: 1 Width: 64-bit Data Rate: 1600 MT/s

CPU 0 runs /datasets/cs240c-wi22-a00-public/data/Assignment2-gz/libquantum_1210B.trace.gz
Heartbeat CPU 0 instructions: 1000003 cycles: 314916 heartbeat IPC: 3.17546 cumulative IPC: 3.17546 (Simulation time: 0 hr 2 min 10 sec) 
CPU 0 runs /datasets/cs240c-wi22-a00-public/data/Assignment2-gz/libquantum_1735B.trace.gz
Heartbeat CPU 0 instructions: 1000003 cycles: 333345 heartbeat IPC: 2.9999 cumulative IPC: 2.9999 (Simulation time: 0 hr 2 min 20 sec) 
CPU 0 runs /datasets/cs240c-wi22-a00-public/data/Assignment2-gz/libquantum_964B.trace.gz
Heartbeat CPU 0 instructions: 1000001 cycles: 333344 heartbeat IPC: 2.99991 cumulative IPC: 2.99991 (Simulation time: 0 hr 2 min 24 sec) 
CPU 0 runs /datasets/cs240c-wi22-a00-public/data/Assignment2-gz/calculix_2670B.trace.gz
Heartbeat CPU 0 instructions: 1000003 cycles: 520140 heartbeat IPC: 1.92257 cumulative IPC: 1.92257 (Simulation time: 0 hr 2 min 29 sec) 
CPU 0 runs /datasets/cs240c-wi22-a00-public/data/Assignment2-gz/calculix_2655B.trace.gz
Heartbeat CPU 0 instructions: 1000003 cycles: 371402 heartbeat IPC: 2.69251 cumulative IPC: 2.69251 (Simulation time: 0 hr 2 min 31 sec) 
CPU 0 runs /datasets/cs240c-wi22-a00-public/data/Assignment2-gz/zeusmp_100B.trace.gz
Heartbeat CPU 0 instructions: 1000002 cycles: 464468 heartbeat IPC: 2.15301 cumulative IPC: 2.15301 (Simulation time: 0 hr 2 min 45 sec) 
CPU 0 runs /datasets/cs240c-wi22-a00-public/data/Assignment2-gz/sphinx3_2520B.trace.gz
Heartbeat CPU 0 instructions: 1000003 cycles: 338265 heartbeat IPC: 2.95627 cumulative IPC: 2.95627 (Simulation time: 0 hr 2 min 51 sec) 
CPU 0 runs /datasets/cs240c-wi22-a00-public/data/Assignment2-gz/sphinx3_1339B.trace.gz
Heartbeat CPU 0 instructions: 1000001 cycles: 338437 heartbeat IPC: 2.95476 cumulative IPC: 2.95476 (Simulation time: 0 hr 2 min 54 sec) 
CPU 0 runs /datasets/cs240c-wi22-a00-public/data/Assignment2-gz/soplex_205B.trace.gz
Heartbeat CPU 0 instructions: 1000000 cycles: 394357 heartbeat IPC: 2.53577 cumulative IPC: 2.53577 (Simulation time: 0 hr 2 min 56 sec) 
CPU 0 runs /datasets/cs240c-wi22-a00-public/data/Assignment2-gz/zeusmp_600B.trace.gz
Heartbeat CPU 0 instructions: 1000000 cycles: 407507 heartbeat IPC: 2.45395 cumulative IPC: 2.45395 (Simulation time: 0 hr 2 min 56 sec) 
CPU 0 runs /datasets/cs240c-wi22-a00-public/data/Assignment2-gz/astar_23B.trace.gz
Heartbeat CPU 0 instructions: 1000000 cycles: 360103 heartbeat IPC: 2.77698 cumulative IPC: 2.77698 (Simulation time: 0 hr 2 min 58 sec) 
CPU 0 runs /datasets/cs240c-wi22-a00-public/data/Assignment2-gz/omnetpp_17B.trace.gz
Heartbeat CPU 0 instructions: 1000000 cycles: 559780 heartbeat IPC: 1.78642 cumulative IPC: 1.78642 (Simulation time: 0 hr 3 min 3 sec) 
CPU 0 runs /datasets/cs240c-wi22-a00-public/data/Assignment2-gz/lbm_564B.trace.gz
Heartbeat CPU 0 instructions: 1000000 cycles: 390238 heartbeat IPC: 2.56254 cumulative IPC: 2.56254 (Simulation time: 0 hr 3 min 6 sec) 
CPU 0 runs /datasets/cs240c-wi22-a00-public/data/Assignment2-gz/lbm_94B.trace.gz
Heartbeat CPU 0 instructions: 1000000 cycles: 422411 heartbeat IPC: 2.36736 cumulative IPC: 2.36736 (Simulation time: 0 hr 3 min 6 sec) 
CPU 0 runs /datasets/cs240c-wi22-a00-public/data/Assignment2-gz/omnetpp_4B.trace.gz
Heartbeat CPU 0 instructions: 1000001 cycles: 566835 heartbeat IPC: 1.76418 cumulative IPC: 1.76418 (Simulation time: 0 hr 3 min 7 sec) 
CPU 0 runs /datasets/cs240c-wi22-a00-public/data/Assignment2-gz/sphinx3_883B.trace.gz
Heartbeat CPU 0 instructions: 1000003 cycles: 413061 heartbeat IPC: 2.42096 cumulative IPC: 2.42096 (Simulation time: 0 hr 3 min 8 sec) 
CPU 0 runs /datasets/cs240c-wi22-a00-public/data/Assignment2-gz/calculix_3812B.trace.gz
Heartbeat CPU 0 instructions: 1000001 cycles: 475279 heartbeat IPC: 2.10403 cumulative IPC: 2.10403 (Simulation time: 0 hr 3 min 11 sec) 
CPU 0 runs /datasets/cs240c-wi22-a00-public/data/Assignment2-gz/zeusmp_300B.trace.gz
Heartbeat CPU 0 instructions: 1000003 cycles: 508391 heartbeat IPC: 1.967 cumulative IPC: 1.967 (Simulation time: 0 hr 3 min 11 sec) 
CPU 0 runs /datasets/cs240c-wi22-a00-public/data/Assignment2-gz/milc_409B.trace.gz
Heartbeat CPU 0 instructions: 1000000 cycles: 402731 heartbeat IPC: 2.48305 cumulative IPC: 2.48305 (Simulation time: 0 hr 3 min 14 sec) 
CPU 0 runs /datasets/cs240c-wi22-a00-public/data/Assignment2-gz/milc_744B.trace.gz
Heartbeat CPU 0 instructions: 1000000 cycles: 383399 heartbeat IPC: 2.60825 cumulative IPC: 2.60825 (Simulation time: 0 hr 3 min 17 sec) 
CPU 0 runs /datasets/cs240c-wi22-a00-public/data/Assignment2-gz/bzip2_259B.trace.gz
Heartbeat CPU 0 instructions: 1000002 cycles: 428954 heartbeat IPC: 2.33126 cumulative IPC: 2.33126 (Simulation time: 0 hr 3 min 18 sec) 
CPU 0 runs /datasets/cs240c-wi22-a00-public/data/Assignment2-gz/bzip2_281B.trace.gz
Heartbeat CPU 0 instructions: 1000000 cycles: 445723 heartbeat IPC: 2.24355 cumulative IPC: 2.24355 (Simulation time: 0 hr 3 min 19 sec) 
CPU 0 runs /datasets/cs240c-wi22-a00-public/data/Assignment2-gz/wrf_1650B.trace.gz
Heartbeat CPU 0 instructions: 1000000 cycles: 514412 heartbeat IPC: 1.94397 cumulative IPC: 1.94397 (Simulation time: 0 hr 3 min 19 sec) 
CPU 0 runs /datasets/cs240c-wi22-a00-public/data/Assignment2-gz/gcc_13B.trace.gz
Heartbeat CPU 0 instructions: 1000000 cycles: 644728 heartbeat IPC: 1.55104 cumulative IPC: 1.55104 (Simulation time: 0 hr 3 min 20 sec) 
CPU 0 runs /datasets/cs240c-wi22-a00-public/data/Assignment2-gz/soplex_217B.trace.gz
Heartbeat CPU 0 instructions: 1000000 cycles: 437356 heartbeat IPC: 2.28647 cumulative IPC: 2.28647 (Simulation time: 0 hr 3 min 20 sec) 
CPU 0 runs /datasets/cs240c-wi22-a00-public/data/Assignment2-gz/bzip2_183B.trace.gz
Heartbeat CPU 0 instructions: 1000000 cycles: 448069 heartbeat IPC: 2.2318 cumulative IPC: 2.2318 (Simulation time: 0 hr 3 min 20 sec) 
CPU 0 runs /datasets/cs240c-wi22-a00-public/data/Assignment2-gz/lbm_1004B.trace.gz
Heartbeat CPU 0 instructions: 1000002 cycles: 391495 heartbeat IPC: 2.55432 cumulative IPC: 2.55432 (Simulation time: 0 hr 3 min 22 sec) 
CPU 0 runs /datasets/cs240c-wi22-a00-public/data/Assignment2-gz/soplex_66B.trace.gz
Heartbeat CPU 0 instructions: 1000003 cycles: 416333 heartbeat IPC: 2.40193 cumulative IPC: 2.40193 (Simulation time: 0 hr 3 min 22 sec) 
CPU 0 runs /datasets/cs240c-wi22-a00-public/data/Assignment2-gz/perlbench_105B.trace.gz
Heartbeat CPU 0 instructions: 1000000 cycles: 578082 heartbeat IPC: 1.72986 cumulative IPC: 1.72986 (Simulation time: 0 hr 3 min 24 sec) 
CPU 0 runs /datasets/cs240c-wi22-a00-public/data/Assignment2-gz/GemsFDTD_716B.trace.gz
Heartbeat CPU 0 instructions: 1000000 cycles: 415494 heartbeat IPC: 2.40677 cumulative IPC: 2.40677 (Simulation time: 0 hr 3 min 29 sec) 
CPU 0 runs /datasets/cs240c-wi22-a00-public/data/Assignment2-gz/leslie3d_1116B.trace.gz
Heartbeat CPU 0 instructions: 1000001 cycles: 532936 heartbeat IPC: 1.8764 cumulative IPC: 1.8764 (Simulation time: 0 hr 3 min 32 sec) 
CPU 0 runs /datasets/cs240c-wi22-a00-public/data/Assignment2-gz/mcf_46B.trace.gz
Heartbeat CPU 0 instructions: 1000002 cycles: 482155 heartbeat IPC: 2.07403 cumulative IPC: 2.07403 (Simulation time: 0 hr 3 min 38 sec) 
CPU 0 runs /datasets/cs240c-wi22-a00-public/data/Assignment2-gz/wrf_1212B.trace.gz
Heartbeat CPU 0 instructions: 1000001 cycles: 599253 heartbeat IPC: 1.66875 cumulative IPC: 1.66875 (Simulation time: 0 hr 3 min 37 sec) 
CPU 0 runs /datasets/cs240c-wi22-a00-public/data/Assignment2-gz/milc_360B.trace.gz
Heartbeat CPU 0 instructions: 1000001 cycles: 549889 heartbeat IPC: 1.81855 cumulative IPC: 1.81855 (Simulation time: 0 hr 3 min 38 sec) 
CPU 0 runs /datasets/cs240c-wi22-a00-public/data/Assignment2-gz/astar_163B.trace.gz
Heartbeat CPU 0 instructions: 1000002 cycles: 530774 heartbeat IPC: 1.88404 cumulative IPC: 1.88404 (Simulation time: 0 hr 3 min 44 sec) 
CPU 0 runs /datasets/cs240c-wi22-a00-public/data/Assignment2-gz/mcf_250B.trace.gz
Heartbeat CPU 0 instructions: 1000000 cycles: 527454 heartbeat IPC: 1.8959 cumulative IPC: 1.8959 (Simulation time: 0 hr 3 min 47 sec) 
CPU 0 runs /datasets/cs240c-wi22-a00-public/data/Assignment2-gz/GemsFDTD_109B.trace.gz
Heartbeat CPU 0 instructions: 1000002 cycles: 577063 heartbeat IPC: 1.73292 cumulative IPC: 1.73292 (Simulation time: 0 hr 3 min 49 sec) 
CPU 0 runs /datasets/cs240c-wi22-a00-public/data/Assignment2-gz/leslie3d_1186B.trace.gz
Heartbeat CPU 0 instructions: 1000002 cycles: 557793 heartbeat IPC: 1.79278 cumulative IPC: 1.79278 (Simulation time: 0 hr 3 min 53 sec) 
CPU 0 runs /datasets/cs240c-wi22-a00-public/data/Assignment2-gz/GemsFDTD_712B.trace.gz
Heartbeat CPU 0 instructions: 1000003 cycles: 633083 heartbeat IPC: 1.57958 cumulative IPC: 1.57958 (Simulation time: 0 hr 3 min 54 sec) 
CPU 0 runs /datasets/cs240c-wi22-a00-public/data/Assignment2-gz/wrf_1228B.trace.gz
Heartbeat CPU 0 instructions: 1000003 cycles: 590333 heartbeat IPC: 1.69396 cumulative IPC: 1.69396 (Simulation time: 0 hr 3 min 54 sec) 
CPU 0 runs /datasets/cs240c-wi22-a00-public/data/Assignment2-gz/gcc_39B.trace.gz
Heartbeat CPU 0 instructions: 1000000 cycles: 510392 heartbeat IPC: 1.95928 cumulative IPC: 1.95928 (Simulation time: 0 hr 3 min 56 sec) 
CPU 0 runs /datasets/cs240c-wi22-a00-public/data/Assignment2-gz/mcf_158B.trace.gz
Heartbeat CPU 0 instructions: 1000002 cycles: 496535 heartbeat IPC: 2.01396 cumulative IPC: 2.01396 (Simulation time: 0 hr 4 min 0 sec) 
CPU 0 runs /datasets/cs240c-wi22-a00-public/data/Assignment2-gz/omnetpp_340B.trace.gz
Heartbeat CPU 0 instructions: 1000001 cycles: 578280 heartbeat IPC: 1.72927 cumulative IPC: 1.72927 (Simulation time: 0 hr 4 min 2 sec) 
CPU 0 runs /datasets/cs240c-wi22-a00-public/data/Assignment2-gz/gcc_56B.trace.gz
Heartbeat CPU 0 instructions: 1000003 cycles: 954224 heartbeat IPC: 1.04798 cumulative IPC: 1.04798 (Simulation time: 0 hr 4 min 4 sec) 
CPU 0 runs /datasets/cs240c-wi22-a00-public/data/Assignment2-gz/leslie3d_94B.trace.gz
Heartbeat CPU 0 instructions: 1000003 cycles: 592147 heartbeat IPC: 1.68877 cumulative IPC: 1.68877 (Simulation time: 0 hr 4 min 4 sec) 
CPU 0 runs /datasets/cs240c-wi22-a00-public/data/Assignment2-gz/perlbench_135B.trace.gz
Heartbeat CPU 0 instructions: 1000000 cycles: 601490 heartbeat IPC: 1.66254 cumulative IPC: 1.66254 (Simulation time: 0 hr 4 min 8 sec) 
Heartbeat CPU 0 instructions: 2000000 cycles: 630173 heartbeat IPC: 3.17201 cumulative IPC: 3.17373 (Simulation time: 0 hr 4 min 28 sec) 
CPU 0 runs /datasets/cs240c-wi22-a00-public/data/Assignment2-gz/astar_313B.trace.gz
Heartbeat CPU 0 instructions: 1000001 cycles: 678650 heartbeat IPC: 1.47352 cumulative IPC: 1.47352 (Simulation time: 0 hr 4 min 28 sec) 
CPU 0 runs /datasets/cs240c-wi22-a00-public/data/Assignment2-gz/perlbench_53B.trace.gz
Heartbeat CPU 0 instructions: 1000000 cycles: 617122 heartbeat IPC: 1.62043 cumulative IPC: 1.62043 (Simulation time: 0 hr 4 min 30 sec) 
CPU 0 runs /datasets/cs240c-wi22-a00-public/data/Assignment2-gz/cactusADM_734B.trace.gz
Heartbeat CPU 0 instructions: 1000003 cycles: 592365 heartbeat IPC: 1.68815 cumulative IPC: 1.68815 (Simulation time: 0 hr 4 min 31 sec) 
CPU 0 runs /datasets/cs240c-wi22-a00-public/data/Assignment2-gz/cactusADM_1495B.trace.gz
Heartbeat CPU 0 instructions: 1000003 cycles: 593354 heartbeat IPC: 1.68534 cumulative IPC: 1.68534 (Simulation time: 0 hr 4 min 46 sec) 
CPU 0 runs /datasets/cs240c-wi22-a00-public/data/Assignment2-gz/cactusADM_1039B.trace.gz
Heartbeat CPU 0 instructions: 1000000 cycles: 595112 heartbeat IPC: 1.68036 cumulative IPC: 1.68036 (Simulation time: 0 hr 4 min 50 sec) 
Heartbeat CPU 0 instructions: 2000001 cycles: 666677 heartbeat IPC: 3 cumulative IPC: 2.99995 (Simulation time: 0 hr 4 min 50 sec) 
Heartbeat CPU 0 instructions: 2000003 cycles: 666677 heartbeat IPC: 3.00001 cumulative IPC: 2.99996 (Simulation time: 0 hr 4 min 51 sec) 
Heartbeat CPU 0 instructions: 2000001 cycles: 746536 heartbeat IPC: 2.66571 cumulative IPC: 2.67904 (Simulation time: 0 hr 5 min 2 sec) 
Heartbeat CPU 0 instructions: 2000001 cycles: 1039679 heartbeat IPC: 1.92478 cumulative IPC: 1.92367 (Simulation time: 0 hr 5 min 5 sec) 
Heartbeat CPU 0 instructions: 2000001 cycles: 928928 heartbeat IPC: 2.15304 cumulative IPC: 2.15302 (Simulation time: 0 hr 5 min 37 sec) 
Heartbeat CPU 0 instructions: 2000001 cycles: 691941 heartbeat IPC: 2.82882 cumulative IPC: 2.89042 (Simulation time: 0 hr 5 min 40 sec) 
Heartbeat CPU 0 instructions: 2000001 cycles: 720965 heartbeat IPC: 2.77115 cumulative IPC: 2.77406 (Simulation time: 0 hr 5 min 43 sec) 
Heartbeat CPU 0 instructions: 2000001 cycles: 814374 heartbeat IPC: 2.45781 cumulative IPC: 2.45588 (Simulation time: 0 hr 5 min 46 sec) 
Heartbeat CPU 0 instructions: 2000002 cycles: 890222 heartbeat IPC: 2.01668 cumulative IPC: 2.24663 (Simulation time: 0 hr 5 min 56 sec) 
Heartbeat CPU 0 instructions: 2000000 cycles: 735301 heartbeat IPC: 2.51866 cumulative IPC: 2.71997 (Simulation time: 0 hr 5 min 58 sec) 
Heartbeat CPU 0 instructions: 2000002 cycles: 949743 heartbeat IPC: 2.10764 cumulative IPC: 2.10583 (Simulation time: 0 hr 6 min 4 sec) 
Heartbeat CPU 0 instructions: 2000001 cycles: 1135262 heartbeat IPC: 1.75924 cumulative IPC: 1.76171 (Simulation time: 0 hr 6 min 4 sec) 
Heartbeat CPU 0 instructions: 2000003 cycles: 1059161 heartbeat IPC: 1.81564 cumulative IPC: 1.88829 (Simulation time: 0 hr 6 min 11 sec) 
Heartbeat CPU 0 instructions: 2000000 cycles: 812709 heartbeat IPC: 2.56214 cumulative IPC: 2.46091 (Simulation time: 0 hr 6 min 15 sec) 
Heartbeat CPU 0 instructions: 2000000 cycles: 821532 heartbeat IPC: 2.44815 cumulative IPC: 2.43448 (Simulation time: 0 hr 6 min 15 sec) 
Heartbeat CPU 0 instructions: 2000003 cycles: 797919 heartbeat IPC: 2.77345 cumulative IPC: 2.50652 (Simulation time: 0 hr 6 min 20 sec) 
Heartbeat CPU 0 instructions: 2000003 cycles: 785321 heartbeat IPC: 2.53112 cumulative IPC: 2.54673 (Simulation time: 0 hr 6 min 20 sec) 
Heartbeat CPU 0 instructions: 2000002 cycles: 1133995 heartbeat IPC: 1.74151 cumulative IPC: 1.76368 (Simulation time: 0 hr 6 min 22 sec) 
Heartbeat CPU 0 instructions: 2000001 cycles: 766759 heartbeat IPC: 2.60852 cumulative IPC: 2.60838 (Simulation time: 0 hr 6 min 24 sec) 
Heartbeat CPU 0 instructions: 2000001 cycles: 782981 heartbeat IPC: 2.55437 cumulative IPC: 2.55434 (Simulation time: 0 hr 6 min 26 sec) 
Heartbeat CPU 0 instructions: 2000003 cycles: 899728 heartbeat IPC: 2.20263 cumulative IPC: 2.2229 (Simulation time: 0 hr 6 min 31 sec) 
Heartbeat CPU 0 instructions: 2000000 cycles: 882610 heartbeat IPC: 2.08386 cumulative IPC: 2.26601 (Simulation time: 0 hr 6 min 31 sec) 
Heartbeat CPU 0 instructions: 2000003 cycles: 861405 heartbeat IPC: 2.3124 cumulative IPC: 2.32179 (Simulation time: 0 hr 6 min 36 sec) 
Heartbeat CPU 0 instructions: 2000001 cycles: 951159 heartbeat IPC: 1.98772 cumulative IPC: 2.1027 (Simulation time: 0 hr 6 min 39 sec) 
Heartbeat CPU 0 instructions: 3000003 cycles: 945982 heartbeat IPC: 3.16648 cumulative IPC: 3.17131 (Simulation time: 0 hr 6 min 42 sec) 
Heartbeat CPU 0 instructions: 2000000 cycles: 1028660 heartbeat IPC: 1.94459 cumulative IPC: 1.94428 (Simulation time: 0 hr 6 min 44 sec) 
Heartbeat CPU 0 instructions: 2000002 cycles: 842776 heartbeat IPC: 2.34498 cumulative IPC: 2.37311 (Simulation time: 0 hr 6 min 45 sec) 
Heartbeat CPU 0 instructions: 2000001 cycles: 1257204 heartbeat IPC: 1.63272 cumulative IPC: 1.59083 (Simulation time: 0 hr 6 min 52 sec) 
Heartbeat CPU 0 instructions: 2000003 cycles: 830875 heartbeat IPC: 2.40744 cumulative IPC: 2.4071 (Simulation time: 0 hr 6 min 56 sec) 
Heartbeat CPU 0 instructions: 2000003 cycles: 1066398 heartbeat IPC: 1.87455 cumulative IPC: 1.87548 (Simulation time: 0 hr 6 min 59 sec) 
Heartbeat CPU 0 instructions: 2000003 cycles: 1099779 heartbeat IPC: 1.81855 cumulative IPC: 1.81855 (Simulation time: 0 hr 7 min 0 sec) 
Heartbeat CPU 0 instructions: 2000001 cycles: 1164382 heartbeat IPC: 1.70561 cumulative IPC: 1.71765 (Simulation time: 0 hr 7 min 13 sec) 
Heartbeat CPU 0 instructions: 2000000 cycles: 1198243 heartbeat IPC: 1.66948 cumulative IPC: 1.66911 (Simulation time: 0 hr 7 min 13 sec) 
Heartbeat CPU 0 instructions: 3000000 cycles: 1000009 heartbeat IPC: 3.00001 cumulative IPC: 2.99997 (Simulation time: 0 hr 7 min 15 sec) 
Heartbeat CPU 0 instructions: 2000002 cycles: 967464 heartbeat IPC: 2.06054 cumulative IPC: 2.06726 (Simulation time: 0 hr 7 min 17 sec) 
Heartbeat CPU 0 instructions: 2000003 cycles: 1060018 heartbeat IPC: 1.88949 cumulative IPC: 1.88676 (Simulation time: 0 hr 7 min 22 sec) 
Heartbeat CPU 0 instructions: 3000002 cycles: 1121180 heartbeat IPC: 2.6692 cumulative IPC: 2.67575 (Simulation time: 0 hr 7 min 26 sec) 
Heartbeat CPU 0 instructions: 3000001 cycles: 989047 heartbeat IPC: 3.10202 cumulative IPC: 3.03322 (Simulation time: 0 hr 7 min 32 sec) 
Heartbeat CPU 0 instructions: 2000002 cycles: 1100503 heartbeat IPC: 1.96013 cumulative IPC: 1.81735 (Simulation time: 0 hr 7 min 31 sec) 
Heartbeat CPU 0 instructions: 2000000 cycles: 1266011 heartbeat IPC: 1.57995 cumulative IPC: 1.57977 (Simulation time: 0 hr 7 min 41 sec) 
Heartbeat CPU 0 instructions: 3000001 cycles: 1559976 heartbeat IPC: 1.92198 cumulative IPC: 1.92311 (Simulation time: 0 hr 7 min 44 sec) 
Heartbeat CPU 0 instructions: 2000003 cycles: 1029230 heartbeat IPC: 1.99293 cumulative IPC: 1.9432 (Simulation time: 0 hr 7 min 46 sec) 
Heartbeat CPU 0 instructions: 2000002 cycles: 1020757 heartbeat IPC: 1.95939 cumulative IPC: 1.95933 (Simulation time: 0 hr 7 min 49 sec) 
Heartbeat CPU 0 instructions: 2000002 cycles: 992212 heartbeat IPC: 2.01744 cumulative IPC: 2.0157 (Simulation time: 0 hr 7 min 55 sec) 
Heartbeat CPU 0 instructions: 2000003 cycles: 1154104 heartbeat IPC: 1.73298 cumulative IPC: 1.73295 (Simulation time: 0 hr 7 min 57 sec) 
Heartbeat CPU 0 instructions: 2000000 cycles: 1162467 heartbeat IPC: 1.71178 cumulative IPC: 1.72048 (Simulation time: 0 hr 7 min 58 sec) 
Heartbeat CPU 0 instructions: 2000000 cycles: 1204525 heartbeat IPC: 1.54623 cumulative IPC: 1.66041 (Simulation time: 0 hr 8 min 6 sec) 
Heartbeat CPU 0 instructions: 2000001 cycles: 1898520 heartbeat IPC: 1.05899 cumulative IPC: 1.05345 (Simulation time: 0 hr 8 min 8 sec) 
Heartbeat CPU 0 instructions: 2000000 cycles: 1212073 heartbeat IPC: 1.63778 cumulative IPC: 1.65007 (Simulation time: 0 hr 8 min 16 sec) 
Heartbeat CPU 0 instructions: 2000002 cycles: 1206641 heartbeat IPC: 1.62735 cumulative IPC: 1.6575 (Simulation time: 0 hr 8 min 20 sec) 
Heartbeat CPU 0 instructions: 3000003 cycles: 1393617 heartbeat IPC: 2.15198 cumulative IPC: 2.15267 (Simulation time: 0 hr 8 min 28 sec) 
Heartbeat CPU 0 instructions: 2000003 cycles: 1269341 heartbeat IPC: 1.69294 cumulative IPC: 1.57562 (Simulation time: 0 hr 8 min 31 sec) 
Heartbeat CPU 0 instructions: 3000003 cycles: 1181536 heartbeat IPC: 2.24098 cumulative IPC: 2.53907 (Simulation time: 0 hr 8 min 38 sec) 
Heartbeat CPU 0 instructions: 3000000 cycles: 1081973 heartbeat IPC: 2.56389 cumulative IPC: 2.77271 (Simulation time: 0 hr 8 min 42 sec) 
Heartbeat CPU 0 instructions: 3000000 cycles: 1079917 heartbeat IPC: 2.78589 cumulative IPC: 2.77799 (Simulation time: 0 hr 8 min 53 sec) 
Heartbeat CPU 0 instructions: 3000003 cycles: 1221893 heartbeat IPC: 2.45388 cumulative IPC: 2.45521 (Simulation time: 0 hr 8 min 54 sec) 
Heartbeat CPU 0 instructions: 4000000 cycles: 1260334 heartbeat IPC: 3.18114 cumulative IPC: 3.17376 (Simulation time: 0 hr 8 min 55 sec) 
Heartbeat CPU 0 instructions: 2000001 cycles: 1255808 heartbeat IPC: 1.56572 cumulative IPC: 1.5926 (Simulation time: 0 hr 9 min 2 sec) 
Heartbeat CPU 0 instructions: 3000001 cycles: 1769252 heartbeat IPC: 1.57416 cumulative IPC: 1.69563 (Simulation time: 0 hr 9 min 11 sec) 
Heartbeat CPU 0 instructions: 3000002 cycles: 1425613 heartbeat IPC: 2.10141 cumulative IPC: 2.10436 (Simulation time: 0 hr 9 min 13 sec) 
Heartbeat CPU 0 instructions: 3000001 cycles: 1722681 heartbeat IPC: 1.70236 cumulative IPC: 1.74147 (Simulation time: 0 hr 9 min 18 sec) 
Heartbeat CPU 0 instructions: 3000002 cycles: 1175571 heartbeat IPC: 2.56246 cumulative IPC: 2.55195 (Simulation time: 0 hr 9 min 21 sec) 
Heartbeat CPU 0 instructions: 3000000 cycles: 1211869 heartbeat IPC: 2.50526 cumulative IPC: 2.47552 (Simulation time: 0 hr 9 min 21 sec) 
Heartbeat CPU 0 instructions: 3000002 cycles: 1602081 heartbeat IPC: 1.84189 cumulative IPC: 1.87257 (Simulation time: 0 hr 9 min 22 sec) 
Heartbeat CPU 0 instructions: 3000003 cycles: 1294920 heartbeat IPC: 2.11244 cumulative IPC: 2.31675 (Simulation time: 0 hr 9 min 21 sec) 
Heartbeat CPU 0 instructions: 2000001 cycles: 1185295 heartbeat IPC: 1.68654 cumulative IPC: 1.68734 (Simulation time: 0 hr 9 min 29 sec) 
Heartbeat CPU 0 instructions: 3000001 cycles: 1174398 heartbeat IPC: 2.55482 cumulative IPC: 2.5545 (Simulation time: 0 hr 9 min 34 sec) 
Heartbeat CPU 0 instructions: 3000001 cycles: 1150170 heartbeat IPC: 2.60817 cumulative IPC: 2.60831 (Simulation time: 0 hr 9 min 42 sec) 
Heartbeat CPU 0 instructions: 3000000 cycles: 1360004 heartbeat IPC: 2.12864 cumulative IPC: 2.20588 (Simulation time: 0 hr 9 min 43 sec) 
Heartbeat CPU 0 instructions: 4000000 cycles: 1333342 heartbeat IPC: 3 cumulative IPC: 2.99998 (Simulation time: 0 hr 9 min 44 sec) 
Heartbeat CPU 0 instructions: 2000000 cycles: 1186182 heartbeat IPC: 1.68682 cumulative IPC: 1.68608 (Simulation time: 0 hr 9 min 45 sec) 
Heartbeat CPU 0 instructions: 3000000 cycles: 1248891 heartbeat IPC: 2.21743 cumulative IPC: 2.40213 (Simulation time: 0 hr 9 min 45 sec) 
Heartbeat CPU 0 instructions: 3000002 cycles: 1314505 heartbeat IPC: 2.41093 cumulative IPC: 2.28223 (Simulation time: 0 hr 9 min 50 sec) 
Heartbeat CPU 0 instructions: 2000002 cycles: 1190036 heartbeat IPC: 1.68089 cumulative IPC: 1.68062 (Simulation time: 0 hr 9 min 51 sec) 
Heartbeat CPU 0 instructions: 3000001 cycles: 1457648 heartbeat IPC: 1.97438 cumulative IPC: 2.05811 (Simulation time: 0 hr 10 min 2 sec) 
Heartbeat CPU 0 instructions: 3000003 cycles: 1252607 heartbeat IPC: 2.44003 cumulative IPC: 2.39501 (Simulation time: 0 hr 10 min 1 sec) 
Heartbeat CPU 0 instructions: 4000000 cycles: 1487470 heartbeat IPC: 2.73007 cumulative IPC: 2.68913 (Simulation time: 0 hr 10 min 3 sec) 
Heartbeat CPU 0 instructions: 3000001 cycles: 1287146 heartbeat IPC: 2.34884 cumulative IPC: 2.33074 (Simulation time: 0 hr 10 min 3 sec) 
Heartbeat CPU 0 instructions: 3000000 cycles: 1735155 heartbeat IPC: 2.09226 cumulative IPC: 1.72895 (Simulation time: 0 hr 10 min 7 sec) 
Heartbeat CPU 0 instructions: 3000001 cycles: 1546521 heartbeat IPC: 1.93102 cumulative IPC: 1.93984 (Simulation time: 0 hr 10 min 12 sec) 
Heartbeat CPU 0 instructions: 4000000 cycles: 1290772 heartbeat IPC: 3.31427 cumulative IPC: 3.09892 (Simulation time: 0 hr 10 min 16 sec) 
Heartbeat CPU 0 instructions: 3000000 cycles: 1286935 heartbeat IPC: 2.19269 cumulative IPC: 2.33112 (Simulation time: 0 hr 10 min 19 sec) 
Heartbeat CPU 0 instructions: 4000000 cycles: 2081696 heartbeat IPC: 1.91674 cumulative IPC: 1.92151 (Simulation time: 0 hr 10 min 23 sec) 
Heartbeat CPU 0 instructions: 3000003 cycles: 1600517 heartbeat IPC: 1.87224 cumulative IPC: 1.8744 (Simulation time: 0 hr 10 min 34 sec) 
Heartbeat CPU 0 instructions: 3000001 cycles: 1649612 heartbeat IPC: 1.81873 cumulative IPC: 1.81861 (Simulation time: 0 hr 10 min 43 sec) 
Heartbeat CPU 0 instructions: 3000001 cycles: 1726618 heartbeat IPC: 1.77861 cumulative IPC: 1.7375 (Simulation time: 0 hr 10 min 45 sec) 
Heartbeat CPU 0 instructions: 3000003 cycles: 1662911 heartbeat IPC: 1.28156 cumulative IPC: 1.80407 (Simulation time: 0 hr 10 min 53 sec) 
Heartbeat CPU 0 instructions: 3000001 cycles: 1797630 heartbeat IPC: 1.66837 cumulative IPC: 1.66886 (Simulation time: 0 hr 10 min 52 sec) 
Heartbeat CPU 0 instructions: 3000000 cycles: 1483716 heartbeat IPC: 1.93703 cumulative IPC: 2.02195 (Simulation time: 0 hr 11 min 4 sec) 
Heartbeat CPU 0 instructions: 3000002 cycles: 1589730 heartbeat IPC: 1.88782 cumulative IPC: 1.88711 (Simulation time: 0 hr 11 min 5 sec) 
Heartbeat CPU 0 instructions: 5000000 cycles: 1576820 heartbeat IPC: 3.1597 cumulative IPC: 3.17094 (Simulation time: 0 hr 11 min 14 sec) 

Warmup complete CPU 0 instructions: 5000004 cycles: 1576821 (Simulation time: 0 hr 11 min 14 sec) 

Heartbeat CPU 0 instructions: 4000000 cycles: 1858062 heartbeat IPC: 2.1531 cumulative IPC: 2.15278 (Simulation time: 0 hr 11 min 27 sec) 
Heartbeat CPU 0 instructions: 4000000 cycles: 1519954 heartbeat IPC: 2.95492 cumulative IPC: 2.63166 (Simulation time: 0 hr 11 min 29 sec) 
Heartbeat CPU 0 instructions: 3000002 cycles: 1512636 heartbeat IPC: 2.06865 cumulative IPC: 1.98329 (Simulation time: 0 hr 11 min 37 sec) 
Heartbeat CPU 0 instructions: 4000000 cycles: 1526801 heartbeat IPC: 2.24806 cumulative IPC: 2.61986 (Simulation time: 0 hr 11 min 36 sec) 
Heartbeat CPU 0 instructions: 3000002 cycles: 1529819 heartbeat IPC: 1.9644 cumulative IPC: 1.96102 (Simulation time: 0 hr 11 min 41 sec) 
Heartbeat CPU 0 instructions: 4000000 cycles: 1441377 heartbeat IPC: 2.76656 cumulative IPC: 2.77512 (Simulation time: 0 hr 11 min 41 sec) 
Heartbeat CPU 0 instructions: 3000000 cycles: 1708670 heartbeat IPC: 1.64428 cumulative IPC: 1.75575 (Simulation time: 0 hr 11 min 42 sec) 
Heartbeat CPU 0 instructions: 3000000 cycles: 1898572 heartbeat IPC: 1.58088 cumulative IPC: 1.58013 (Simulation time: 0 hr 11 min 43 sec) 
Heartbeat CPU 0 instructions: 3000001 cycles: 1760247 heartbeat IPC: 1.67286 cumulative IPC: 1.70431 (Simulation time: 0 hr 11 min 44 sec) 
Heartbeat CPU 0 instructions: 3000000 cycles: 1488496 heartbeat IPC: 2.01497 cumulative IPC: 2.01546 (Simulation time: 0 hr 11 min 51 sec) 
Heartbeat CPU 0 instructions: 3000000 cycles: 1730667 heartbeat IPC: 1.73441 cumulative IPC: 1.73344 (Simulation time: 0 hr 11 min 52 sec) 
Heartbeat CPU 0 instructions: 4000000 cycles: 1629601 heartbeat IPC: 2.45273 cumulative IPC: 2.45459 (Simulation time: 0 hr 11 min 55 sec) 
Heartbeat CPU 0 instructions: 4000000 cycles: 2334552 heartbeat IPC: 1.76897 cumulative IPC: 1.71339 (Simulation time: 0 hr 12 min 0 sec) 
Heartbeat CPU 0 instructions: 4000000 cycles: 1633292 heartbeat IPC: 2.95532 cumulative IPC: 2.44904 (Simulation time: 0 hr 12 min 7 sec) 
Heartbeat CPU 0 instructions: 5000001 cycles: 1666677 heartbeat IPC: 2.99999 cumulative IPC: 2.99998 (Simulation time: 0 hr 12 min 14 sec) 

Warmup complete CPU 0 instructions: 5000001 cycles: 1666677 (Simulation time: 0 hr 12 min 14 sec) 

Heartbeat CPU 0 instructions: 4000000 cycles: 2291977 heartbeat IPC: 1.75655 cumulative IPC: 1.74522 (Simulation time: 0 hr 12 min 16 sec) 
Heartbeat CPU 0 instructions: 3000001 cycles: 2885884 heartbeat IPC: 1.0128 cumulative IPC: 1.03954 (Simulation time: 0 hr 12 min 20 sec) 
Heartbeat CPU 0 instructions: 4000000 cycles: 1895811 heartbeat IPC: 2.12676 cumulative IPC: 2.10992 (Simulation time: 0 hr 12 min 25 sec) 
Heartbeat CPU 0 instructions: 4000000 cycles: 1565781 heartbeat IPC: 2.56272 cumulative IPC: 2.55464 (Simulation time: 0 hr 12 min 26 sec) 
Heartbeat CPU 0 instructions: 4000000 cycles: 1632044 heartbeat IPC: 2.37996 cumulative IPC: 2.45091 (Simulation time: 0 hr 12 min 26 sec) 
Heartbeat CPU 0 instructions: 3000000 cycles: 1851620 heartbeat IPC: 1.54537 cumulative IPC: 1.6202 (Simulation time: 0 hr 12 min 30 sec) 
Heartbeat CPU 0 instructions: 4000000 cycles: 2087846 heartbeat IPC: 2.0586 cumulative IPC: 1.91585 (Simulation time: 0 hr 12 min 30 sec) 
Heartbeat CPU 0 instructions: 5000003 cycles: 1860159 heartbeat IPC: 2.68321 cumulative IPC: 2.68794 (Simulation time: 0 hr 12 min 31 sec) 

Warmup complete CPU 0 instructions: 5000003 cycles: 1860159 (Simulation time: 0 hr 12 min 31 sec) 

Heartbeat CPU 0 instructions: 3000000 cycles: 1836606 heartbeat IPC: 1.6012 cumulative IPC: 1.63345 (Simulation time: 0 hr 12 min 33 sec) 
Heartbeat CPU 0 instructions: 3000002 cycles: 1854530 heartbeat IPC: 1.54347 cumulative IPC: 1.61766 (Simulation time: 0 hr 12 min 38 sec) 
Heartbeat CPU 0 instructions: 4000000 cycles: 1722393 heartbeat IPC: 2.75947 cumulative IPC: 2.32235 (Simulation time: 0 hr 12 min 42 sec) 
Heartbeat CPU 0 instructions: 4000000 cycles: 1570639 heartbeat IPC: 2.52371 cumulative IPC: 2.54673 (Simulation time: 0 hr 12 min 44 sec) 
Heartbeat CPU 0 instructions: 3000003 cycles: 1945692 heartbeat IPC: 1.47852 cumulative IPC: 1.54187 (Simulation time: 0 hr 12 min 47 sec) 
Heartbeat CPU 0 instructions: 4000000 cycles: 1533552 heartbeat IPC: 2.60836 cumulative IPC: 2.60832 (Simulation time: 0 hr 12 min 59 sec) 
Heartbeat CPU 0 instructions: 5000000 cycles: 1592498 heartbeat IPC: 3.31427 cumulative IPC: 3.13972 (Simulation time: 0 hr 13 min 0 sec) 

Warmup complete CPU 0 instructions: 5000004 cycles: 1592499 (Simulation time: 0 hr 13 min 0 sec) 

Heartbeat CPU 0 instructions: 4000000 cycles: 1685678 heartbeat IPC: 2.50921 cumulative IPC: 2.37293 (Simulation time: 0 hr 13 min 3 sec) 
Heartbeat CPU 0 instructions: 5000000 cycles: 2602077 heartbeat IPC: 1.92167 cumulative IPC: 1.92154 (Simulation time: 0 hr 13 min 4 sec) 

Warmup complete CPU 0 instructions: 5000001 cycles: 2602078 (Simulation time: 0 hr 13 min 4 sec) 

Heartbeat CPU 0 instructions: 4000000 cycles: 1637958 heartbeat IPC: 2.59503 cumulative IPC: 2.44207 (Simulation time: 0 hr 13 min 7 sec) 
Heartbeat CPU 0 instructions: 4000000 cycles: 1753029 heartbeat IPC: 2.28037 cumulative IPC: 2.28176 (Simulation time: 0 hr 13 min 10 sec) 
Heartbeat CPU 0 instructions: 4000000 cycles: 1686795 heartbeat IPC: 2.28361 cumulative IPC: 2.37136 (Simulation time: 0 hr 13 min 26 sec) 
Heartbeat CPU 0 instructions: 4000000 cycles: 1928242 heartbeat IPC: 2.12497 cumulative IPC: 2.07443 (Simulation time: 0 hr 13 min 26 sec) 
Heartbeat CPU 0 instructions: 4000000 cycles: 2212920 heartbeat IPC: 2.09308 cumulative IPC: 1.80757 (Simulation time: 0 hr 13 min 33 sec) 
Heartbeat CPU 0 instructions: 4000000 cycles: 2064469 heartbeat IPC: 1.93069 cumulative IPC: 1.93754 (Simulation time: 0 hr 13 min 40 sec) 
Heartbeat CPU 0 instructions: 4000000 cycles: 1744228 heartbeat IPC: 2.18678 cumulative IPC: 2.29328 (Simulation time: 0 hr 13 min 44 sec) 
Heartbeat CPU 0 instructions: 3000002 cycles: 1912368 heartbeat IPC: 1.52309 cumulative IPC: 1.56874 (Simulation time: 0 hr 13 min 50 sec) 
Heartbeat CPU 0 instructions: 4000000 cycles: 2133411 heartbeat IPC: 1.87654 cumulative IPC: 1.87493 (Simulation time: 0 hr 14 min 11 sec) 
Heartbeat CPU 0 instructions: 5000003 cycles: 2322491 heartbeat IPC: 2.15319 cumulative IPC: 2.15286 (Simulation time: 0 hr 14 min 16 sec) 

Warmup complete CPU 0 instructions: 5000003 cycles: 2322491 (Simulation time: 0 hr 14 min 16 sec) 

Heartbeat CPU 0 instructions: 4000000 cycles: 2199464 heartbeat IPC: 1.81867 cumulative IPC: 1.81862 (Simulation time: 0 hr 14 min 18 sec) 
Heartbeat CPU 0 instructions: 4000000 cycles: 2306048 heartbeat IPC: 1.72583 cumulative IPC: 1.73457 (Simulation time: 0 hr 14 min 20 sec) 
Heartbeat CPU 0 instructions: 5000003 cycles: 1865235 heartbeat IPC: 2.95479 cumulative IPC: 2.68063 (Simulation time: 0 hr 14 min 23 sec) 

Warmup complete CPU 0 instructions: 5000003 cycles: 1865235 (Simulation time: 0 hr 14 min 23 sec) 

Heartbeat CPU 0 instructions: 4000000 cycles: 2396228 heartbeat IPC: 1.67057 cumulative IPC: 1.66929 (Simulation time: 0 hr 14 min 29 sec) 
Heartbeat CPU 0 instructions: 3000003 cycles: 1779362 heartbeat IPC: 1.68583 cumulative IPC: 1.686 (Simulation time: 0 hr 14 min 34 sec) 
Heartbeat CPU 0 instructions: 5000000 cycles: 1803459 heartbeat IPC: 2.76181 cumulative IPC: 2.77245 (Simulation time: 0 hr 14 min 34 sec) 

Warmup complete CPU 0 instructions: 5000004 cycles: 1803460 (Simulation time: 0 hr 14 min 34 sec) 

Heartbeat CPU 0 instructions: 4000000 cycles: 2119462 heartbeat IPC: 1.88774 cumulative IPC: 1.88727 (Simulation time: 0 hr 14 min 35 sec) 
Heartbeat CPU 0 instructions: 3000003 cycles: 1778084 heartbeat IPC: 1.68694 cumulative IPC: 1.68721 (Simulation time: 0 hr 14 min 38 sec) 
Heartbeat CPU 0 instructions: 5000001 cycles: 1897207 heartbeat IPC: 2.65074 cumulative IPC: 2.63545 (Simulation time: 0 hr 14 min 41 sec) 

Warmup complete CPU 0 instructions: 5000001 cycles: 1897207 (Simulation time: 0 hr 14 min 41 sec) 

Heartbeat CPU 0 instructions: 4000000 cycles: 1993914 heartbeat IPC: 1.96002 cumulative IPC: 2.0061 (Simulation time: 0 hr 14 min 43 sec) 
Heartbeat CPU 0 instructions: 6000001 cycles: 4802736 heartbeat IPC: 0.30999 cumulative IPC: 0.309989 (Simulation time: 0 hr 14 min 45 sec) 
Heartbeat CPU 0 instructions: 5000001 cycles: 2037319 heartbeat IPC: 2.45268 cumulative IPC: 2.45421 (Simulation time: 0 hr 14 min 48 sec) 

Warmup complete CPU 0 instructions: 5000001 cycles: 2037319 (Simulation time: 0 hr 14 min 48 sec) 

Heartbeat CPU 0 instructions: 5000002 cycles: 2893959 heartbeat IPC: 1.78761 cumulative IPC: 1.72774 (Simulation time: 0 hr 14 min 51 sec) 

Warmup complete CPU 0 instructions: 5000002 cycles: 2893959 (Simulation time: 0 hr 14 min 51 sec) 

Heartbeat CPU 0 instructions: 3000003 cycles: 1785063 heartbeat IPC: 1.6806 cumulative IPC: 1.68061 (Simulation time: 0 hr 14 min 51 sec) 
Heartbeat CPU 0 instructions: 5000000 cycles: 2866135 heartbeat IPC: 1.74168 cumulative IPC: 1.74451 (Simulation time: 0 hr 15 min 9 sec) 

Warmup complete CPU 0 instructions: 5000002 cycles: 2866136 (Simulation time: 0 hr 15 min 9 sec) 

Heartbeat CPU 0 instructions: 5000000 cycles: 2346967 heartbeat IPC: 2.21653 cumulative IPC: 2.13041 (Simulation time: 0 hr 15 min 11 sec) 

Warmup complete CPU 0 instructions: 5000003 cycles: 2346968 (Simulation time: 0 hr 15 min 11 sec) 

Heartbeat CPU 0 instructions: 5000000 cycles: 1987097 heartbeat IPC: 2.82642 cumulative IPC: 2.51623 (Simulation time: 0 hr 15 min 12 sec) 

Warmup complete CPU 0 instructions: 5000004 cycles: 1987098 (Simulation time: 0 hr 15 min 12 sec) 

Heartbeat CPU 0 instructions: 4000000 cycles: 2443121 heartbeat IPC: 1.2817 cumulative IPC: 1.63725 (Simulation time: 0 hr 15 min 15 sec) 
Heartbeat CPU 0 instructions: 5000001 cycles: 2022289 heartbeat IPC: 2.5625 cumulative IPC: 2.47245 (Simulation time: 0 hr 15 min 16 sec) 

Warmup complete CPU 0 instructions: 5000001 cycles: 2022289 (Simulation time: 0 hr 15 min 16 sec) 

Heartbeat CPU 0 instructions: 4000000 cycles: 2038994 heartbeat IPC: 1.96396 cumulative IPC: 1.96175 (Simulation time: 0 hr 15 min 19 sec) 
Heartbeat CPU 0 instructions: 4000000 cycles: 2530840 heartbeat IPC: 1.58161 cumulative IPC: 1.5805 (Simulation time: 0 hr 15 min 21 sec) 
Heartbeat CPU 0 instructions: 5000000 cycles: 1960932 heartbeat IPC: 2.53068 cumulative IPC: 2.54981 (Simulation time: 0 hr 15 min 21 sec) 

Warmup complete CPU 0 instructions: 5000004 cycles: 1960933 (Simulation time: 0 hr 15 min 21 sec) 

Heartbeat CPU 0 instructions: 4000000 cycles: 2006969 heartbeat IPC: 2.02292 cumulative IPC: 1.99306 (Simulation time: 0 hr 15 min 30 sec) 
Heartbeat CPU 0 instructions: 6000003 cycles: 2440238 heartbeat IPC: 1.7239 cumulative IPC: 1.7239 (Simulation time: 0 hr 15 min 34 sec) 
Heartbeat CPU 0 instructions: 4000000 cycles: 2319455 heartbeat IPC: 1.63724 cumulative IPC: 1.72454 (Simulation time: 0 hr 15 min 40 sec) 
Heartbeat CPU 0 instructions: 4000000 cycles: 1983424 heartbeat IPC: 2.0205 cumulative IPC: 2.01671 (Simulation time: 0 hr 15 min 43 sec) 
Heartbeat CPU 0 instructions: 4000000 cycles: 2307160 heartbeat IPC: 1.73463 cumulative IPC: 1.73373 (Simulation time: 0 hr 15 min 44 sec) 
Heartbeat CPU 0 instructions: 4000000 cycles: 2381472 heartbeat IPC: 1.60972 cumulative IPC: 1.67963 (Simulation time: 0 hr 15 min 50 sec) 
Heartbeat CPU 0 instructions: 5000001 cycles: 2171255 heartbeat IPC: 2.22786 cumulative IPC: 2.30282 (Simulation time: 0 hr 15 min 50 sec) 

Warmup complete CPU 0 instructions: 5000001 cycles: 2171255 (Simulation time: 0 hr 15 min 50 sec) 

Heartbeat CPU 0 instructions: 5000001 cycles: 2571024 heartbeat IPC: 2.06963 cumulative IPC: 1.94475 (Simulation time: 0 hr 15 min 53 sec) 

Warmup complete CPU 0 instructions: 5000001 cycles: 2571024 (Simulation time: 0 hr 15 min 53 sec) 

Heartbeat CPU 0 instructions: 5000002 cycles: 1962092 heartbeat IPC: 2.55459 cumulative IPC: 2.5483 (Simulation time: 0 hr 15 min 54 sec) 

Warmup complete CPU 0 instructions: 5000002 cycles: 1962092 (Simulation time: 0 hr 15 min 54 sec) 

Heartbeat CPU 0 instructions: 6000001 cycles: 3075679 heartbeat IPC: 2.11148 cumulative IPC: 2.11148 (Simulation time: 0 hr 15 min 58 sec) 
Heartbeat CPU 0 instructions: 5000001 cycles: 1916947 heartbeat IPC: 2.60828 cumulative IPC: 2.60831 (Simulation time: 0 hr 16 min 4 sec) 

Warmup complete CPU 0 instructions: 5000001 cycles: 1916947 (Simulation time: 0 hr 16 min 4 sec) 

Heartbeat CPU 0 instructions: 5000000 cycles: 2038147 heartbeat IPC: 2.49882 cumulative IPC: 2.45321 (Simulation time: 0 hr 16 min 6 sec) 

Warmup complete CPU 0 instructions: 5000001 cycles: 2038149 (Simulation time: 0 hr 16 min 6 sec) 

Heartbeat CPU 0 instructions: 6000002 cycles: 3664216 heartbeat IPC: 0.500616 cumulative IPC: 0.500616 (Simulation time: 0 hr 16 min 13 sec) 
Heartbeat CPU 0 instructions: 5000001 cycles: 2104126 heartbeat IPC: 2.38979 cumulative IPC: 2.37628 (Simulation time: 0 hr 16 min 13 sec) 

Warmup complete CPU 0 instructions: 5000001 cycles: 2104126 (Simulation time: 0 hr 16 min 13 sec) 

Heartbeat CPU 0 instructions: 5000002 cycles: 2174869 heartbeat IPC: 2.37057 cumulative IPC: 2.29899 (Simulation time: 0 hr 16 min 16 sec) 

Warmup complete CPU 0 instructions: 5000002 cycles: 2174869 (Simulation time: 0 hr 16 min 16 sec) 

Heartbeat CPU 0 instructions: 5000001 cycles: 2071765 heartbeat IPC: 2.59761 cumulative IPC: 2.4134 (Simulation time: 0 hr 16 min 20 sec) 

Warmup complete CPU 0 instructions: 5000001 cycles: 2071765 (Simulation time: 0 hr 16 min 20 sec) 

Heartbeat CPU 0 instructions: 4000000 cycles: 2452052 heartbeat IPC: 1.66547 cumulative IPC: 1.63129 (Simulation time: 0 hr 16 min 38 sec) 
Heartbeat CPU 0 instructions: 4000000 cycles: 3848630 heartbeat IPC: 1.03869 cumulative IPC: 1.03933 (Simulation time: 0 hr 16 min 39 sec) 
Heartbeat CPU 0 instructions: 5000002 cycles: 2691155 heartbeat IPC: 2.09103 cumulative IPC: 1.85794 (Simulation time: 0 hr 16 min 41 sec) 

Warmup complete CPU 0 instructions: 5000002 cycles: 2691155 (Simulation time: 0 hr 16 min 41 sec) 

Heartbeat CPU 0 instructions: 4000000 cycles: 2497342 heartbeat IPC: 1.51346 cumulative IPC: 1.6017 (Simulation time: 0 hr 16 min 42 sec) 
Heartbeat CPU 0 instructions: 4000000 cycles: 2622752 heartbeat IPC: 1.47697 cumulative IPC: 1.52512 (Simulation time: 0 hr 16 min 48 sec) 
Heartbeat CPU 0 instructions: 4000000 cycles: 2502071 heartbeat IPC: 1.5443 cumulative IPC: 1.59868 (Simulation time: 0 hr 16 min 48 sec) 
Heartbeat CPU 0 instructions: 6000001 cycles: 4820733 heartbeat IPC: 0.309767 cumulative IPC: 0.309766 (Simulation time: 0 hr 16 min 52 sec) 
Heartbeat CPU 0 instructions: 5000001 cycles: 2582394 heartbeat IPC: 1.93078 cumulative IPC: 1.93619 (Simulation time: 0 hr 17 min 5 sec) 

Warmup complete CPU 0 instructions: 5000001 cycles: 2582394 (Simulation time: 0 hr 17 min 5 sec) 

Heartbeat CPU 0 instructions: 5000000 cycles: 2425411 heartbeat IPC: 2.01139 cumulative IPC: 2.06151 (Simulation time: 0 hr 17 min 10 sec) 

Warmup complete CPU 0 instructions: 5000004 cycles: 2425412 (Simulation time: 0 hr 17 min 10 sec) 

Heartbeat CPU 0 instructions: 5000000 cycles: 2159515 heartbeat IPC: 2.40797 cumulative IPC: 2.31533 (Simulation time: 0 hr 17 min 18 sec) 

Warmup complete CPU 0 instructions: 5000001 cycles: 2159516 (Simulation time: 0 hr 17 min 18 sec) 

Heartbeat CPU 0 instructions: 6000000 cycles: 4588330 heartbeat IPC: 0.359083 cumulative IPC: 0.359082 (Simulation time: 0 hr 17 min 31 sec) 
Heartbeat CPU 0 instructions: 6000001 cycles: 3243959 heartbeat IPC: 1.08522 cumulative IPC: 1.08522 (Simulation time: 0 hr 17 min 31 sec) 
Heartbeat CPU 0 instructions: 5000003 cycles: 2884306 heartbeat IPC: 1.72934 cumulative IPC: 1.73352 (Simulation time: 0 hr 17 min 51 sec) 

Warmup complete CPU 0 instructions: 5000003 cycles: 2884306 (Simulation time: 0 hr 17 min 51 sec) 

Heartbeat CPU 0 instructions: 6000001 cycles: 2984440 heartbeat IPC: 1.5687 cumulative IPC: 1.56869 (Simulation time: 0 hr 17 min 51 sec) 
Heartbeat CPU 0 instructions: 5000001 cycles: 2666043 heartbeat IPC: 1.87747 cumulative IPC: 1.87544 (Simulation time: 0 hr 17 min 53 sec) 

Warmup complete CPU 0 instructions: 5000001 cycles: 2666043 (Simulation time: 0 hr 17 min 53 sec) 

Heartbeat CPU 0 instructions: 5000002 cycles: 2749347 heartbeat IPC: 1.81857 cumulative IPC: 1.81861 (Simulation time: 0 hr 17 min 55 sec) 

Warmup complete CPU 0 instructions: 5000002 cycles: 2749347 (Simulation time: 0 hr 17 min 55 sec) 

Heartbeat CPU 0 instructions: 6000000 cycles: 5911265 heartbeat IPC: 0.331421 cumulative IPC: 0.331421 (Simulation time: 0 hr 18 min 1 sec) 
Heartbeat CPU 0 instructions: 5000000 cycles: 2995748 heartbeat IPC: 1.668 cumulative IPC: 1.66903 (Simulation time: 0 hr 18 min 4 sec) 

Warmup complete CPU 0 instructions: 5000001 cycles: 2995749 (Simulation time: 0 hr 18 min 4 sec) 

Heartbeat CPU 0 instructions: 7000001 cycles: 7987048 heartbeat IPC: 0.31404 cumulative IPC: 0.312001 (Simulation time: 0 hr 18 min 13 sec) 
Heartbeat CPU 0 instructions: 6000000 cycles: 2905684 heartbeat IPC: 1.15159 cumulative IPC: 1.15159 (Simulation time: 0 hr 18 min 14 sec) 
Heartbeat CPU 0 instructions: 6000002 cycles: 4075400 heartbeat IPC: 0.452454 cumulative IPC: 0.452454 (Simulation time: 0 hr 18 min 14 sec) 
Heartbeat CPU 0 instructions: 6000002 cycles: 3537864 heartbeat IPC: 0.609513 cumulative IPC: 0.609513 (Simulation time: 0 hr 18 min 15 sec) 
Heartbeat CPU 0 instructions: 5000000 cycles: 2651055 heartbeat IPC: 1.88114 cumulative IPC: 1.88604 (Simulation time: 0 hr 18 min 19 sec) 

Warmup complete CPU 0 instructions: 5000001 cycles: 2651058 (Simulation time: 0 hr 18 min 19 sec) 

Heartbeat CPU 0 instructions: 5000000 cycles: 2476514 heartbeat IPC: 2.07211 cumulative IPC: 2.01897 (Simulation time: 0 hr 18 min 22 sec) 

Warmup complete CPU 0 instructions: 5000004 cycles: 2476515 (Simulation time: 0 hr 18 min 22 sec) 

Heartbeat CPU 0 instructions: 6000002 cycles: 5754631 heartbeat IPC: 0.346202 cumulative IPC: 0.346201 (Simulation time: 0 hr 18 min 24 sec) 
Heartbeat CPU 0 instructions: 7000000 cycles: 2988311 heartbeat IPC: 1.82457 cumulative IPC: 1.77281 (Simulation time: 0 hr 18 min 28 sec) 
Heartbeat CPU 0 instructions: 4000000 cycles: 2528843 heartbeat IPC: 1.62212 cumulative IPC: 1.58175 (Simulation time: 0 hr 18 min 28 sec) 
Heartbeat CPU 0 instructions: 7000001 cycles: 3552712 heartbeat IPC: 2.09629 cumulative IPC: 2.10386 (Simulation time: 0 hr 18 min 33 sec) 
Heartbeat CPU 0 instructions: 6000002 cycles: 3352178 heartbeat IPC: 0.718782 cumulative IPC: 0.718779 (Simulation time: 0 hr 18 min 52 sec) 
Heartbeat CPU 0 instructions: 5000003 cycles: 2548012 heartbeat IPC: 1.96457 cumulative IPC: 1.96232 (Simulation time: 0 hr 18 min 57 sec) 

Warmup complete CPU 0 instructions: 5000003 cycles: 2548012 (Simulation time: 0 hr 18 min 57 sec) 

Heartbeat CPU 0 instructions: 5000003 cycles: 3163225 heartbeat IPC: 1.58132 cumulative IPC: 1.58067 (Simulation time: 0 hr 18 min 57 sec) 

Warmup complete CPU 0 instructions: 5000003 cycles: 3163225 (Simulation time: 0 hr 18 min 57 sec) 

Heartbeat CPU 0 instructions: 6000000 cycles: 4578968 heartbeat IPC: 0.385822 cumulative IPC: 0.38582 (Simulation time: 0 hr 19 min 0 sec) 
Heartbeat CPU 0 instructions: 5000000 cycles: 3123527 heartbeat IPC: 1.46971 cumulative IPC: 1.60075 (Simulation time: 0 hr 19 min 13 sec) 

Warmup complete CPU 0 instructions: 5000004 cycles: 3123528 (Simulation time: 0 hr 19 min 13 sec) 

Heartbeat CPU 0 instructions: 6000000 cycles: 3702230 heartbeat IPC: 0.595258 cumulative IPC: 0.595258 (Simulation time: 0 hr 19 min 14 sec) 
Heartbeat CPU 0 instructions: 6000002 cycles: 3131508 heartbeat IPC: 0.973349 cumulative IPC: 0.973349 (Simulation time: 0 hr 19 min 14 sec) 
Heartbeat CPU 0 instructions: 4000000 cycles: 2372043 heartbeat IPC: 1.68724 cumulative IPC: 1.68631 (Simulation time: 0 hr 19 min 24 sec) 
Heartbeat CPU 0 instructions: 6000002 cycles: 3379631 heartbeat IPC: 0.705448 cumulative IPC: 0.705448 (Simulation time: 0 hr 19 min 28 sec) 
Heartbeat CPU 0 instructions: 5000000 cycles: 3014430 heartbeat IPC: 1.4389 cumulative IPC: 1.65869 (Simulation time: 0 hr 19 min 27 sec) 

Warmup complete CPU 0 instructions: 5000004 cycles: 3014432 (Simulation time: 0 hr 19 min 27 sec) 

Heartbeat CPU 0 instructions: 5000002 cycles: 2476977 heartbeat IPC: 2.02613 cumulative IPC: 2.01859 (Simulation time: 0 hr 19 min 29 sec) 

Warmup complete CPU 0 instructions: 5000002 cycles: 2476977 (Simulation time: 0 hr 19 min 29 sec) 

Heartbeat CPU 0 instructions: 6000000 cycles: 3833180 heartbeat IPC: 0.521857 cumulative IPC: 0.521857 (Simulation time: 0 hr 19 min 31 sec) 
Heartbeat CPU 0 instructions: 6000000 cycles: 3438409 heartbeat IPC: 1.15289 cumulative IPC: 1.15289 (Simulation time: 0 hr 19 min 32 sec) 
Heartbeat CPU 0 instructions: 6000000 cycles: 3553611 heartbeat IPC: 0.725297 cumulative IPC: 0.725297 (Simulation time: 0 hr 19 min 33 sec) 
Heartbeat CPU 0 instructions: 5000000 cycles: 2883681 heartbeat IPC: 1.73454 cumulative IPC: 1.73389 (Simulation time: 0 hr 19 min 33 sec) 

Warmup complete CPU 0 instructions: 5000004 cycles: 2883682 (Simulation time: 0 hr 19 min 33 sec) 

Heartbeat CPU 0 instructions: 5000002 cycles: 2497834 heartbeat IPC: 2.03722 cumulative IPC: 2.00174 (Simulation time: 0 hr 19 min 35 sec) 

Warmup complete CPU 0 instructions: 5000002 cycles: 2497834 (Simulation time: 0 hr 19 min 35 sec) 

Heartbeat CPU 0 instructions: 7000001 cycles: 5849143 heartbeat IPC: 0.457681 cumulative IPC: 0.478187 (Simulation time: 0 hr 19 min 44 sec) 
Heartbeat CPU 0 instructions: 4000000 cycles: 2370621 heartbeat IPC: 1.68765 cumulative IPC: 1.68732 (Simulation time: 0 hr 19 min 46 sec) 
Heartbeat CPU 0 instructions: 4000000 cycles: 2380257 heartbeat IPC: 1.68012 cumulative IPC: 1.68049 (Simulation time: 0 hr 19 min 49 sec) 
Heartbeat CPU 0 instructions: 6000000 cycles: 3803428 heartbeat IPC: 0.577479 cumulative IPC: 0.577479 (Simulation time: 0 hr 19 min 51 sec) 
Heartbeat CPU 0 instructions: 5000002 cycles: 2957002 heartbeat IPC: 1.73753 cumulative IPC: 1.6909 (Simulation time: 0 hr 19 min 57 sec) 

Warmup complete CPU 0 instructions: 5000002 cycles: 2957002 (Simulation time: 0 hr 19 min 57 sec) 

Heartbeat CPU 0 instructions: 6000000 cycles: 4962002 heartbeat IPC: 0.342014 cumulative IPC: 0.342014 (Simulation time: 0 hr 20 min 0 sec) 
Heartbeat CPU 0 instructions: 7000000 cycles: 3542426 heartbeat IPC: 1.79216 cumulative IPC: 1.673 (Simulation time: 0 hr 20 min 22 sec) 
Heartbeat CPU 0 instructions: 6000000 cycles: 6794916 heartbeat IPC: 0.216279 cumulative IPC: 0.216279 (Simulation time: 0 hr 20 min 26 sec) 
Heartbeat CPU 0 instructions: 6000001 cycles: 3900218 heartbeat IPC: 0.678056 cumulative IPC: 0.678053 (Simulation time: 0 hr 20 min 27 sec) 
Heartbeat CPU 0 instructions: 7000000 cycles: 7710367 heartbeat IPC: 0.320304 cumulative IPC: 0.338586 (Simulation time: 0 hr 20 min 31 sec) 
Heartbeat CPU 0 instructions: 5000001 cycles: 3085110 heartbeat IPC: 1.70135 cumulative IPC: 1.62069 (Simulation time: 0 hr 20 min 35 sec) 

Warmup complete CPU 0 instructions: 5000001 cycles: 3085110 (Simulation time: 0 hr 20 min 35 sec) 

Heartbeat CPU 0 instructions: 7000001 cycles: 4166510 heartbeat IPC: 1.08395 cumulative IPC: 1.08459 (Simulation time: 0 hr 20 min 41 sec) 
Heartbeat CPU 0 instructions: 7000002 cycles: 8039898 heartbeat IPC: 0.31064 cumulative IPC: 0.310202 (Simulation time: 0 hr 20 min 47 sec) 
Heartbeat CPU 0 instructions: 5000002 cycles: 3062201 heartbeat IPC: 1.7853 cumulative IPC: 1.63281 (Simulation time: 0 hr 20 min 50 sec) 

Warmup complete CPU 0 instructions: 5000002 cycles: 3062201 (Simulation time: 0 hr 20 min 50 sec) 

Heartbeat CPU 0 instructions: 5000002 cycles: 4738254 heartbeat IPC: 1.12407 cumulative IPC: 1.05524 (Simulation time: 0 hr 20 min 50 sec) 

Warmup complete CPU 0 instructions: 5000002 cycles: 4738254 (Simulation time: 0 hr 20 min 50 sec) 

Heartbeat CPU 0 instructions: 5000002 cycles: 3300063 heartbeat IPC: 1.47643 cumulative IPC: 1.51512 (Simulation time: 0 hr 20 min 52 sec) 

Warmup complete CPU 0 instructions: 5000002 cycles: 3300063 (Simulation time: 0 hr 20 min 52 sec) 

Heartbeat CPU 0 instructions: 6000003 cycles: 7076477 heartbeat IPC: 0.228034 cumulative IPC: 0.228034 (Simulation time: 0 hr 20 min 54 sec) 
Heartbeat CPU 0 instructions: 5000000 cycles: 3057829 heartbeat IPC: 1.65077 cumulative IPC: 1.63515 (Simulation time: 0 hr 21 min 7 sec) 

Warmup complete CPU 0 instructions: 5000002 cycles: 3057830 (Simulation time: 0 hr 21 min 7 sec) 

Heartbeat CPU 0 instructions: 8000000 cycles: 4026025 heartbeat IPC: 2.11276 cumulative IPC: 2.10682 (Simulation time: 0 hr 21 min 19 sec) 
Heartbeat CPU 0 instructions: 8000000 cycles: 3535767 heartbeat IPC: 1.82663 cumulative IPC: 1.79039 (Simulation time: 0 hr 21 min 22 sec) 
Heartbeat CPU 0 instructions: 6000003 cycles: 4216266 heartbeat IPC: 0.612044 cumulative IPC: 0.612044 (Simulation time: 0 hr 21 min 26 sec) 
Heartbeat CPU 0 instructions: 8000000 cycles: 11186317 heartbeat IPC: 0.312571 cumulative IPC: 0.312191 (Simulation time: 0 hr 21 min 34 sec) 
Heartbeat CPU 0 instructions: 7000000 cycles: 9785148 heartbeat IPC: 0.258139 cumulative IPC: 0.290225 (Simulation time: 0 hr 21 min 36 sec) 
Heartbeat CPU 0 instructions: 7000000 cycles: 8780390 heartbeat IPC: 0.330495 cumulative IPC: 0.338166 (Simulation time: 0 hr 21 min 39 sec) 
Heartbeat CPU 0 instructions: 7000002 cycles: 3778956 heartbeat IPC: 1.14512 cumulative IPC: 1.14835 (Simulation time: 0 hr 21 min 41 sec) 
Heartbeat CPU 0 instructions: 7000001 cycles: 5680680 heartbeat IPC: 0.622944 cumulative IPC: 0.524185 (Simulation time: 0 hr 21 min 49 sec) 
Heartbeat CPU 0 instructions: 7000000 cycles: 5153553 heartbeat IPC: 0.61893 cumulative IPC: 0.614185 (Simulation time: 0 hr 22 min 1 sec) 
Heartbeat CPU 0 instructions: 6000001 cycles: 4322933 heartbeat IPC: 0.60354 cumulative IPC: 0.60354 (Simulation time: 0 hr 22 min 8 sec) 
Heartbeat CPU 0 instructions: 6000000 cycles: 3507343 heartbeat IPC: 0.741934 cumulative IPC: 0.741934 (Simulation time: 0 hr 22 min 10 sec) 
Heartbeat CPU 0 instructions: 7000003 cycles: 4155251 heartbeat IPC: 0.976809 cumulative IPC: 0.975076 (Simulation time: 0 hr 22 min 15 sec) 
Heartbeat CPU 0 instructions: 6000001 cycles: 4698199 heartbeat IPC: 0.513122 cumulative IPC: 0.513122 (Simulation time: 0 hr 22 min 16 sec) 
Heartbeat CPU 0 instructions: 7000002 cycles: 4764772 heartbeat IPC: 0.825656 cumulative IPC: 0.77223 (Simulation time: 0 hr 22 min 27 sec) 
Heartbeat CPU 0 instructions: 6000001 cycles: 4812623 heartbeat IPC: 0.550396 cumulative IPC: 0.550396 (Simulation time: 0 hr 22 min 32 sec) 
Heartbeat CPU 0 instructions: 7000000 cycles: 5026803 heartbeat IPC: 0.597147 cumulative IPC: 0.652342 (Simulation time: 0 hr 22 min 35 sec) 
Heartbeat CPU 0 instructions: 6000000 cycles: 4821686 heartbeat IPC: 0.460696 cumulative IPC: 0.460696 (Simulation time: 0 hr 22 min 41 sec) 
Heartbeat CPU 0 instructions: 6000003 cycles: 5270109 heartbeat IPC: 0.419146 cumulative IPC: 0.419146 (Simulation time: 0 hr 22 min 51 sec) 
Heartbeat CPU 0 instructions: 8000000 cycles: 4095056 heartbeat IPC: 1.80953 cumulative IPC: 1.71616 (Simulation time: 0 hr 23 min 0 sec) 
Heartbeat CPU 0 instructions: 7000000 cycles: 7045454 heartbeat IPC: 0.405435 cumulative IPC: 0.395385 (Simulation time: 0 hr 23 min 0 sec) 
Heartbeat CPU 0 instructions: 7000002 cycles: 5762001 heartbeat IPC: 0.518452 cumulative IPC: 0.520149 (Simulation time: 0 hr 23 min 2 sec) 
Heartbeat CPU 0 instructions: 8000000 cycles: 8138677 heartbeat IPC: 0.43677 cumulative IPC: 0.463535 (Simulation time: 0 hr 23 min 7 sec) 
Heartbeat CPU 0 instructions: 7000000 cycles: 8539489 heartbeat IPC: 0.573206 cumulative IPC: 0.314059 (Simulation time: 0 hr 23 min 9 sec) 
Heartbeat CPU 0 instructions: 7000000 cycles: 4389588 heartbeat IPC: 1.05133 cumulative IPC: 1.09977 (Simulation time: 0 hr 23 min 11 sec) 
Heartbeat CPU 0 instructions: 5000001 cycles: 3158592 heartbeat IPC: 1.58794 cumulative IPC: 1.58298 (Simulation time: 0 hr 23 min 12 sec) 

Warmup complete CPU 0 instructions: 5000001 cycles: 3158592 (Simulation time: 0 hr 23 min 12 sec) 

Heartbeat CPU 0 instructions: 7000001 cycles: 5686152 heartbeat IPC: 0.504053 cumulative IPC: 0.545872 (Simulation time: 0 hr 23 min 18 sec) 
Heartbeat CPU 0 instructions: 8000000 cycles: 10505242 heartbeat IPC: 0.357798 cumulative IPC: 0.344757 (Simulation time: 0 hr 23 min 18 sec) 
Heartbeat CPU 0 instructions: 7000003 cycles: 5067478 heartbeat IPC: 0.592471 cumulative IPC: 0.644043 (Simulation time: 0 hr 23 min 19 sec) 
Heartbeat CPU 0 instructions: 6000003 cycles: 5448541 heartbeat IPC: 0.430106 cumulative IPC: 0.430105 (Simulation time: 0 hr 23 min 20 sec) 
Heartbeat CPU 0 instructions: 6000003 cycles: 9530398 heartbeat IPC: 0.141766 cumulative IPC: 0.141766 (Simulation time: 0 hr 23 min 22 sec) 
Heartbeat CPU 0 instructions: 6000000 cycles: 3914634 heartbeat IPC: 0.731729 cumulative IPC: 0.731729 (Simulation time: 0 hr 23 min 30 sec) 
Heartbeat CPU 0 instructions: 7000002 cycles: 7607056 heartbeat IPC: 0.378065 cumulative IPC: 0.359137 (Simulation time: 0 hr 23 min 30 sec) 
Heartbeat CPU 0 instructions: 7000001 cycles: 5479144 heartbeat IPC: 0.633342 cumulative IPC: 0.654935 (Simulation time: 0 hr 23 min 33 sec) 
Heartbeat CPU 0 instructions: 6000002 cycles: 4856239 heartbeat IPC: 0.542946 cumulative IPC: 0.542944 (Simulation time: 0 hr 23 min 35 sec) 
Heartbeat CPU 0 instructions: 8000000 cycles: 5089586 heartbeat IPC: 1.08333 cumulative IPC: 1.08417 (Simulation time: 0 hr 23 min 52 sec) 
Heartbeat CPU 0 instructions: 9000001 cycles: 4502728 heartbeat IPC: 2.09774 cumulative IPC: 2.10454 (Simulation time: 0 hr 24 min 4 sec) 
Heartbeat CPU 0 instructions: 5000000 cycles: 2964991 heartbeat IPC: 1.68649 cumulative IPC: 1.68635 (Simulation time: 0 hr 24 min 9 sec) 

Warmup complete CPU 0 instructions: 5000004 cycles: 2964992 (Simulation time: 0 hr 24 min 9 sec) 

Heartbeat CPU 0 instructions: 9000000 cycles: 4082145 heartbeat IPC: 1.83023 cumulative IPC: 1.80019 (Simulation time: 0 hr 24 min 19 sec) 
Heartbeat CPU 0 instructions: 6000000 cycles: 5403417 heartbeat IPC: 0.396867 cumulative IPC: 0.396866 (Simulation time: 0 hr 24 min 23 sec) 
Heartbeat CPU 0 instructions: 8000000 cycles: 10831470 heartbeat IPC: 0.955729 cumulative IPC: 0.377952 (Simulation time: 0 hr 24 min 24 sec) 
Heartbeat CPU 0 instructions: 7000001 cycles: 8693596 heartbeat IPC: 0.204492 cumulative IPC: 0.302031 (Simulation time: 0 hr 24 min 26 sec) 
Heartbeat CPU 0 instructions: 6000002 cycles: 6318917 heartbeat IPC: 0.316887 cumulative IPC: 0.316887 (Simulation time: 0 hr 24 min 27 sec) 
Heartbeat CPU 0 instructions: 5000000 cycles: 2963700 heartbeat IPC: 1.68612 cumulative IPC: 1.68708 (Simulation time: 0 hr 24 min 50 sec) 

Warmup complete CPU 0 instructions: 5000004 cycles: 2963701 (Simulation time: 0 hr 24 min 50 sec) 

Heartbeat CPU 0 instructions: 9000002 cycles: 14420761 heartbeat IPC: 0.309173 cumulative IPC: 0.311431 (Simulation time: 0 hr 24 min 51 sec) 
Heartbeat CPU 0 instructions: 8000000 cycles: 11179854 heartbeat IPC: 0.318475 cumulative IPC: 0.312912 (Simulation time: 0 hr 24 min 54 sec) 
Heartbeat CPU 0 instructions: 8000000 cycles: 4648701 heartbeat IPC: 1.14976 cumulative IPC: 1.14882 (Simulation time: 0 hr 24 min 53 sec) 
Heartbeat CPU 0 instructions: 8000000 cycles: 12228146 heartbeat IPC: 0.290044 cumulative IPC: 0.320444 (Simulation time: 0 hr 24 min 59 sec) 
Heartbeat CPU 0 instructions: 5000001 cycles: 2975033 heartbeat IPC: 1.68131 cumulative IPC: 1.68065 (Simulation time: 0 hr 25 min 2 sec) 

Warmup complete CPU 0 instructions: 5000001 cycles: 2975033 (Simulation time: 0 hr 25 min 2 sec) 

Heartbeat CPU 0 instructions: 6000003 cycles: 5728197 heartbeat IPC: 0.378346 cumulative IPC: 0.378346 (Simulation time: 0 hr 25 min 5 sec) 
Heartbeat CPU 0 instructions: 6000000 cycles: 6128534 heartbeat IPC: 0.719278 cumulative IPC: 0.719278 (Simulation time: 0 hr 25 min 6 sec) 
Heartbeat CPU 0 instructions: 6000001 cycles: 14532438 heartbeat IPC: 0.0829499 cumulative IPC: 0.0829499 (Simulation time: 0 hr 25 min 10 sec) 
Heartbeat CPU 0 instructions: 8000000 cycles: 5218976 heartbeat IPC: 0.94009 cumulative IPC: 0.963128 (Simulation time: 0 hr 25 min 11 sec) 
Heartbeat CPU 0 instructions: 6000000 cycles: 13597880 heartbeat IPC: 0.0900895 cumulative IPC: 0.0900895 (Simulation time: 0 hr 25 min 13 sec) 
Heartbeat CPU 0 instructions: 8000000 cycles: 5875029 heartbeat IPC: 0.900691 cumulative IPC: 0.810775 (Simulation time: 0 hr 25 min 20 sec) 
Heartbeat CPU 0 instructions: 8000000 cycles: 7336765 heartbeat IPC: 0.603833 cumulative IPC: 0.548292 (Simulation time: 0 hr 25 min 21 sec) 
Heartbeat CPU 0 instructions: 7000002 cycles: 11500009 heartbeat IPC: 0.226063 cumulative IPC: 0.227044 (Simulation time: 0 hr 25 min 30 sec) 
Heartbeat CPU 0 instructions: 6000003 cycles: 7526179 heartbeat IPC: 0.218858 cumulative IPC: 0.218858 (Simulation time: 0 hr 25 min 33 sec) 
Heartbeat CPU 0 instructions: 7000000 cycles: 5841926 heartbeat IPC: 0.615133 cumulative IPC: 0.613585 (Simulation time: 0 hr 25 min 37 sec) 
Heartbeat CPU 0 instructions: 9000000 cycles: 4658335 heartbeat IPC: 1.77532 cumulative IPC: 1.73058 (Simulation time: 0 hr 25 min 40 sec) 
Heartbeat CPU 0 instructions: 8000000 cycles: 6836901 heartbeat IPC: 0.594054 cumulative IPC: 0.607325 (Simulation time: 0 hr 25 min 41 sec) 
Heartbeat CPU 0 instructions: 9000000 cycles: 13311121 heartbeat IPC: 0.356395 cumulative IPC: 0.347594 (Simulation time: 0 hr 25 min 43 sec) 
Heartbeat CPU 0 instructions: 6000000 cycles: 5022755 heartbeat IPC: 0.510059 cumulative IPC: 0.510059 (Simulation time: 0 hr 25 min 46 sec) 
Heartbeat CPU 0 instructions: 6000001 cycles: 12919263 heartbeat IPC: 0.103959 cumulative IPC: 0.103959 (Simulation time: 0 hr 26 min 11 sec) 
Heartbeat CPU 0 instructions: 7000000 cycles: 5972565 heartbeat IPC: 0.606195 cumulative IPC: 0.604865 (Simulation time: 0 hr 26 min 20 sec) 
Heartbeat CPU 0 instructions: 8000000 cycles: 6701467 heartbeat IPC: 0.818114 cumulative IPC: 0.70158 (Simulation time: 0 hr 26 min 22 sec) 
Heartbeat CPU 0 instructions: 6000000 cycles: 5022812 heartbeat IPC: 0.50891 cumulative IPC: 0.50891 (Simulation time: 0 hr 26 min 24 sec) 
Heartbeat CPU 0 instructions: 7000000 cycles: 6633789 heartbeat IPC: 0.516638 cumulative IPC: 0.514874 (Simulation time: 0 hr 26 min 26 sec) 
Heartbeat CPU 0 instructions: 8000000 cycles: 6745807 heartbeat IPC: 0.581732 cumulative IPC: 0.626975 (Simulation time: 0 hr 26 min 27 sec) 
Heartbeat CPU 0 instructions: 9000001 cycles: 10438766 heartbeat IPC: 0.434766 cumulative IPC: 0.455992 (Simulation time: 0 hr 26 min 27 sec) 
Heartbeat CPU 0 instructions: 8000000 cycles: 11322735 heartbeat IPC: 0.359293 cumulative IPC: 0.327816 (Simulation time: 0 hr 26 min 29 sec) 
Heartbeat CPU 0 instructions: 8000000 cycles: 7693226 heartbeat IPC: 0.517805 cumulative IPC: 0.519365 (Simulation time: 0 hr 26 min 34 sec) 
Heartbeat CPU 0 instructions: 8000000 cycles: 5410837 heartbeat IPC: 0.979193 cumulative IPC: 1.05641 (Simulation time: 0 hr 26 min 36 sec) 
Heartbeat CPU 0 instructions: 8000000 cycles: 8744179 heartbeat IPC: 0.588677 cumulative IPC: 0.443978 (Simulation time: 0 hr 26 min 38 sec) 
Heartbeat CPU 0 instructions: 10000001 cycles: 4976169 heartbeat IPC: 2.1122 cumulative IPC: 2.10607 (Simulation time: 0 hr 26 min 39 sec) 
Heartbeat CPU 0 instructions: 8000000 cycles: 7247575 heartbeat IPC: 0.640441 cumulative IPC: 0.574131 (Simulation time: 0 hr 26 min 46 sec) 
Heartbeat CPU 0 instructions: 7000000 cycles: 4855253 heartbeat IPC: 0.741889 cumulative IPC: 0.741912 (Simulation time: 0 hr 26 min 49 sec) 
Heartbeat CPU 0 instructions: 9000001 cycles: 6031576 heartbeat IPC: 1.06158 cumulative IPC: 1.07843 (Simulation time: 0 hr 26 min 52 sec) 
Heartbeat CPU 0 instructions: 9000001 cycles: 11879028 heartbeat IPC: 0.954602 cumulative IPC: 0.445183 (Simulation time: 0 hr 27 min 0 sec) 
Heartbeat CPU 0 instructions: 7000001 cycles: 6602001 heartbeat IPC: 0.558853 cumulative IPC: 0.554592 (Simulation time: 0 hr 27 min 0 sec) 
Heartbeat CPU 0 instructions: 7000001 cycles: 7001647 heartbeat IPC: 0.458724 cumulative IPC: 0.459708 (Simulation time: 0 hr 27 min 13 sec) 
Heartbeat CPU 0 instructions: 8000000 cycles: 6740250 heartbeat IPC: 0.597808 cumulative IPC: 0.627857 (Simulation time: 0 hr 27 min 14 sec) 
Heartbeat CPU 0 instructions: 7000002 cycles: 7734622 heartbeat IPC: 0.437429 cumulative IPC: 0.433736 (Simulation time: 0 hr 27 min 22 sec) 
Heartbeat CPU 0 instructions: 7000001 cycles: 6681382 heartbeat IPC: 0.547902 cumulative IPC: 0.545412 (Simulation time: 0 hr 27 min 33 sec) 
Heartbeat CPU 0 instructions: 10000002 cycles: 5048303 heartbeat IPC: 1.03503 cumulative IPC: 1.56831 (Simulation time: 0 hr 27 min 44 sec) 
Heartbeat CPU 0 instructions: 7000001 cycles: 5305651 heartbeat IPC: 0.718899 cumulative IPC: 0.725257 (Simulation time: 0 hr 27 min 56 sec) 
Heartbeat CPU 0 instructions: 10000003 cycles: 17555205 heartbeat IPC: 0.319036 cumulative IPC: 0.312923 (Simulation time: 0 hr 28 min 0 sec) 
Heartbeat CPU 0 instructions: 7000000 cycles: 7691774 heartbeat IPC: 0.412938 cumulative IPC: 0.416019 (Simulation time: 0 hr 28 min 2 sec) 
Heartbeat CPU 0 instructions: 9000001 cycles: 15404503 heartbeat IPC: 0.314826 cumulative IPC: 0.319021 (Simulation time: 0 hr 28 min 11 sec) 
Heartbeat CPU 0 instructions: 8000000 cycles: 11321601 heartbeat IPC: 0.269211 cumulative IPC: 0.323156 (Simulation time: 0 hr 28 min 12 sec) 
Heartbeat CPU 0 instructions: 10000001 cycles: 5218925 heartbeat IPC: 1.78384 cumulative IPC: 1.74097 (Simulation time: 0 hr 28 min 15 sec) 
Heartbeat CPU 0 instructions: 9000000 cycles: 6244656 heartbeat IPC: 0.974963 cumulative IPC: 0.96606 (Simulation time: 0 hr 28 min 16 sec) 
Heartbeat CPU 0 instructions: 9000000 cycles: 5522095 heartbeat IPC: 1.14496 cumulative IPC: 1.14785 (Simulation time: 0 hr 28 min 21 sec) 
Heartbeat CPU 0 instructions: 9000000 cycles: 7175680 heartbeat IPC: 0.768846 cumulative IPC: 0.79987 (Simulation time: 0 hr 28 min 24 sec) 
Heartbeat CPU 0 instructions: 10000003 cycles: 16277358 heartbeat IPC: 0.337128 cumulative IPC: 0.345449 (Simulation time: 0 hr 28 min 35 sec) 
Heartbeat CPU 0 instructions: 6000001 cycles: 5872632 heartbeat IPC: 0.368454 cumulative IPC: 0.368454 (Simulation time: 0 hr 28 min 57 sec) 
Heartbeat CPU 0 instructions: 9000000 cycles: 13188818 heartbeat IPC: 0.497769 cumulative IPC: 0.344937 (Simulation time: 0 hr 29 min 15 sec) 
Heartbeat CPU 0 instructions: 9000003 cycles: 9232808 heartbeat IPC: 0.527416 cumulative IPC: 0.54292 (Simulation time: 0 hr 29 min 14 sec) 
Heartbeat CPU 0 instructions: 11000002 cycles: 5453066 heartbeat IPC: 2.09689 cumulative IPC: 2.10453 (Simulation time: 0 hr 29 min 17 sec) 
Heartbeat CPU 0 instructions: 9000001 cycles: 8352416 heartbeat IPC: 0.659842 cumulative IPC: 0.619655 (Simulation time: 0 hr 29 min 18 sec) 
Heartbeat CPU 0 instructions: 8000000 cycles: 12925647 heartbeat IPC: 0.236292 cumulative IPC: 0.276399 (Simulation time: 0 hr 29 min 21 sec) 
Heartbeat CPU 0 instructions: 7000000 cycles: 8383151 heartbeat IPC: 0.376653 cumulative IPC: 0.377498 (Simulation time: 0 hr 29 min 33 sec) 
Heartbeat CPU 0 instructions: 6000001 cycles: 4989627 heartbeat IPC: 0.493916 cumulative IPC: 0.493915 (Simulation time: 0 hr 29 min 35 sec) 
Heartbeat CPU 0 instructions: 9000003 cycles: 7999026 heartbeat IPC: 0.77068 cumulative IPC: 0.717667 (Simulation time: 0 hr 29 min 36 sec) 
Heartbeat CPU 0 instructions: 7000000 cycles: 7492454 heartbeat IPC: 0.733181 cumulative IPC: 0.726163 (Simulation time: 0 hr 29 min 39 sec) 
Heartbeat CPU 0 instructions: 7000002 cycles: 7974864 heartbeat IPC: 0.388887 cumulative IPC: 0.392836 (Simulation time: 0 hr 29 min 40 sec) 
Heartbeat CPU 0 instructions: 7000000 cycles: 9603867 heartbeat IPC: 0.304418 cumulative IPC: 0.310528 (Simulation time: 0 hr 29 min 48 sec) 
Heartbeat CPU 0 instructions: 10000003 cycles: 12924775 heartbeat IPC: 0.956256 cumulative IPC: 0.498464 (Simulation time: 0 hr 29 min 49 sec) 
Heartbeat CPU 0 instructions: 9000003 cycles: 9626203 heartbeat IPC: 0.517338 cumulative IPC: 0.518857 (Simulation time: 0 hr 29 min 52 sec) 
Heartbeat CPU 0 instructions: 9000000 cycles: 6353546 heartbeat IPC: 1.06077 cumulative IPC: 1.0575 (Simulation time: 0 hr 29 min 53 sec) 
Heartbeat CPU 0 instructions: 8000000 cycles: 7464681 heartbeat IPC: 0.616236 cumulative IPC: 0.614466 (Simulation time: 0 hr 29 min 54 sec) 
Heartbeat CPU 0 instructions: 9000000 cycles: 9907025 heartbeat IPC: 0.859959 cumulative IPC: 0.505055 (Simulation time: 0 hr 29 min 55 sec) 
Heartbeat CPU 0 instructions: 10000000 cycles: 12737067 heartbeat IPC: 0.435104 cumulative IPC: 0.451655 (Simulation time: 0 hr 29 min 57 sec) 
Heartbeat CPU 0 instructions: 8000000 cycles: 16124727 heartbeat IPC: 0.216229 cumulative IPC: 0.223321 (Simulation time: 0 hr 30 min 5 sec) 
Heartbeat CPU 0 instructions: 9000000 cycles: 8302383 heartbeat IPC: 0.642436 cumulative IPC: 0.63077 (Simulation time: 0 hr 30 min 9 sec) 
Heartbeat CPU 0 instructions: 10000002 cycles: 6953507 heartbeat IPC: 1.08468 cumulative IPC: 1.07968 (Simulation time: 0 hr 30 min 14 sec) 
Heartbeat CPU 0 instructions: 7000000 cycles: 26618798 heartbeat IPC: 0.0827378 cumulative IPC: 0.0828437 (Simulation time: 0 hr 30 min 34 sec) 
Heartbeat CPU 0 instructions: 7000000 cycles: 24096892 heartbeat IPC: 0.0686505 cumulative IPC: 0.0925051 (Simulation time: 0 hr 30 min 36 sec) 
Heartbeat CPU 0 instructions: 6000002 cycles: 5078266 heartbeat IPC: 0.472911 cumulative IPC: 0.47291 (Simulation time: 0 hr 30 min 38 sec) 
Heartbeat CPU 0 instructions: 8000000 cycles: 8571657 heartbeat IPC: 0.516031 cumulative IPC: 0.515259 (Simulation time: 0 hr 30 min 46 sec) 
Heartbeat CPU 0 instructions: 8000000 cycles: 7560294 heartbeat IPC: 0.62983 cumulative IPC: 0.612964 (Simulation time: 0 hr 30 min 46 sec) 
Heartbeat CPU 0 instructions: 11000001 cycles: 5779212 heartbeat IPC: 1.7848 cumulative IPC: 1.74813 (Simulation time: 0 hr 30 min 47 sec) 
Heartbeat CPU 0 instructions: 9000003 cycles: 9079940 heartbeat IPC: 0.545744 cumulative IPC: 0.566761 (Simulation time: 0 hr 30 min 48 sec) 
Heartbeat CPU 0 instructions: 11000001 cycles: 5663441 heartbeat IPC: 1.62565 cumulative IPC: 1.57758 (Simulation time: 0 hr 30 min 49 sec) 
Heartbeat CPU 0 instructions: 9000000 cycles: 15643073 heartbeat IPC: 0.231463 cumulative IPC: 0.296916 (Simulation time: 0 hr 30 min 51 sec) 
Heartbeat CPU 0 instructions: 7000002 cycles: 6834505 heartbeat IPC: 0.551954 cumulative IPC: 0.53018 (Simulation time: 0 hr 30 min 52 sec) 
Heartbeat CPU 0 instructions: 7000003 cycles: 12433552 heartbeat IPC: 0.203775 cumulative IPC: 0.211047 (Simulation time: 0 hr 31 min 1 sec) 
Heartbeat CPU 0 instructions: 6000002 cycles: 5096258 heartbeat IPC: 0.471426 cumulative IPC: 0.471426 (Simulation time: 0 hr 31 min 4 sec) 
Heartbeat CPU 0 instructions: 10000000 cycles: 7102504 heartbeat IPC: 1.16571 cumulative IPC: 1.00032 (Simulation time: 0 hr 31 min 11 sec) 
Heartbeat CPU 0 instructions: 9000001 cycles: 8282447 heartbeat IPC: 0.648426 cumulative IPC: 0.632876 (Simulation time: 0 hr 31 min 13 sec) 
Heartbeat CPU 0 instructions: 11000000 cycles: 19457043 heartbeat IPC: 0.314496 cumulative IPC: 0.339874 (Simulation time: 0 hr 31 min 23 sec) 
Heartbeat CPU 0 instructions: 11000001 cycles: 20813772 heartbeat IPC: 0.306883 cumulative IPC: 0.3119 (Simulation time: 0 hr 31 min 24 sec) 
[...]
LLC LOAD      ACCESS:    1251713  HIT:     443861  MISS:     807852
LLC RFO       ACCESS:     263698  HIT:     109243  MISS:     154455
LLC PREFETCH  ACCESS:          0  HIT:          0  MISS:          0
LLC WRITEBACK ACCESS:     377256  HIT:     146768  MISS:     230488
Heartbeat CPU 0 instructions: 41000003 cycles: 91070997 heartbeat IPC: 0.533774 cumulative IPC: 0.408645 (Simulation time: 3 hr 23 min 5 sec) 
Heartbeat CPU 0 instructions: 43000002 cycles: 100821743 heartbeat IPC: 0.345895 cumulative IPC: 0.389093 (Simulation time: 3 hr 23 min 12 sec) 
Heartbeat CPU 0 instructions: 52000000 cycles: 106566329 heartbeat IPC: 0.557835 cumulative IPC: 0.454088 (Simulation time: 3 hr 23 min 14 sec) 
Heartbeat CPU 0 instructions: 41000001 cycles: 93780125 heartbeat IPC: 0.545171 cumulative IPC: 0.396404 (Simulation time: 3 hr 23 min 15 sec) 
Heartbeat CPU 0 instructions: 43000000 cycles: 464682339 heartbeat IPC: 0.0829205 cumulative IPC: 0.0822182 (Simulation time: 3 hr 23 min 25 sec) 
Heartbeat CPU 0 instructions: 47000000 cycles: 112391673 heartbeat IPC: 0.288419 cumulative IPC: 0.381014 (Simulation time: 3 hr 23 min 26 sec) 
Heartbeat CPU 0 instructions: 50000001 cycles: 386854877 heartbeat IPC: 0.146413 cumulative IPC: 0.117072 (Simulation time: 3 hr 23 min 28 sec) 
Heartbeat CPU 0 instructions: 47000000 cycles: 181486834 heartbeat IPC: 0.294097 cumulative IPC: 0.235255 (Simulation time: 3 hr 23 min 33 sec) 
Heartbeat CPU 0 instructions: 49000003 cycles: 513601686 heartbeat IPC: 0.0918672 cumulative IPC: 0.0860847 (Simulation time: 3 hr 23 min 37 sec) 
Heartbeat CPU 0 instructions: 52000000 cycles: 155462139 heartbeat IPC: 0.311842 cumulative IPC: 0.308604 (Simulation time: 3 hr 23 min 37 sec) 
Heartbeat CPU 0 instructions: 42000000 cycles: 93001373 heartbeat IPC: 0.518032 cumulative IPC: 0.410991 (Simulation time: 3 hr 23 min 42 sec) 
Heartbeat CPU 0 instructions: 53000002 cycles: 108431420 heartbeat IPC: 0.536168 cumulative IPC: 0.455541 (Simulation time: 3 hr 23 min 48 sec) 
Heartbeat CPU 0 instructions: 44000000 cycles: 476786748 heartbeat IPC: 0.0826145 cumulative IPC: 0.0822284 (Simulation time: 3 hr 24 min 11 sec) 
Heartbeat CPU 0 instructions: 44000000 cycles: 103521182 heartbeat IPC: 0.370447 cumulative IPC: 0.388591 (Simulation time: 3 hr 24 min 13 sec) 
Heartbeat CPU 0 instructions: 48000000 cycles: 116098279 heartbeat IPC: 0.269789 cumulative IPC: 0.377396 (Simulation time: 3 hr 24 min 14 sec) 
Heartbeat CPU 0 instructions: 48000000 cycles: 185831705 heartbeat IPC: 0.230156 cumulative IPC: 0.235134 (Simulation time: 3 hr 24 min 15 sec) 
Heartbeat CPU 0 instructions: 42000002 cycles: 95712053 heartbeat IPC: 0.517618 cumulative IPC: 0.398929 (Simulation time: 3 hr 24 min 16 sec) 
Heartbeat CPU 0 instructions: 43000000 cycles: 94923362 heartbeat IPC: 0.520294 cumulative IPC: 0.413276 (Simulation time: 3 hr 24 min 16 sec) 
Heartbeat CPU 0 instructions: 53000000 cycles: 158755828 heartbeat IPC: 0.303611 cumulative IPC: 0.308498 (Simulation time: 3 hr 24 min 17 sec) 
Heartbeat CPU 0 instructions: 54000001 cycles: 110222852 heartbeat IPC: 0.558212 cumulative IPC: 0.457257 (Simulation time: 3 hr 24 min 21 sec) 
Heartbeat CPU 0 instructions: 51000001 cycles: 400948852 heartbeat IPC: 0.0709523 cumulative IPC: 0.115441 (Simulation time: 3 hr 24 min 21 sec) 
Heartbeat CPU 0 instructions: 50000000 cycles: 526404271 heartbeat IPC: 0.078109 cumulative IPC: 0.0858898 (Simulation time: 3 hr 24 min 25 sec) 
Heartbeat CPU 0 instructions: 44000000 cycles: 96871306 heartbeat IPC: 0.513362 cumulative IPC: 0.415352 (Simulation time: 3 hr 24 min 49 sec) 
Heartbeat CPU 0 instructions: 52000000 cycles: 406083460 heartbeat IPC: 0.194757 cumulative IPC: 0.11645 (Simulation time: 3 hr 24 min 49 sec) 
Heartbeat CPU 0 instructions: 49000000 cycles: 189037493 heartbeat IPC: 0.311936 cumulative IPC: 0.236457 (Simulation time: 3 hr 24 min 50 sec) 
Heartbeat CPU 0 instructions: 55000000 cycles: 112070483 heartbeat IPC: 0.541233 cumulative IPC: 0.458681 (Simulation time: 3 hr 24 min 53 sec) 
Finished CPU 0 instructions: 50000002 cycles: 109008283 cummulative IPC: 0.458681 (Simulation time: 3 hr 24 min 53 sec) 

ChampSim completed all CPUs

Region of Interest Statistics

CPU 0 cummulative IPC: 0.458681 instructions: 50000002 cycles: 109008283
LLC TOTAL     ACCESS:    2288604  HIT:     772172  MISS:    1516432
LLC LOAD      ACCESS:    1470875  HIT:     503787  MISS:     967088
LLC RFO       ACCESS:     352038  HIT:      62027  MISS:     290011
LLC PREFETCH  ACCESS:          0  HIT:          0  MISS:          0
LLC WRITEBACK ACCESS:     465691  HIT:     206358  MISS:     259333
Heartbeat CPU 0 instructions: 45000001 cycles: 488821350 heartbeat IPC: 0.0830938 cumulative IPC: 0.0822498 (Simulation time: 3 hr 24 min 53 sec) 
Heartbeat CPU 0 instructions: 54000000 cycles: 161947642 heartbeat IPC: 0.313301 cumulative IPC: 0.308594 (Simulation time: 3 hr 24 min 54 sec) 
Heartbeat CPU 0 instructions: 45000001 cycles: 104991908 heartbeat IPC: 0.679937 cumulative IPC: 0.392799 (Simulation time: 3 hr 24 min 55 sec) 
Heartbeat CPU 0 instructions: 51000000 cycles: 533806259 heartbeat IPC: 0.135099 cumulative IPC: 0.0865753 (Simulation time: 3 hr 24 min 59 sec) 
Heartbeat CPU 0 instructions: 49000000 cycles: 119846589 heartbeat IPC: 0.266787 cumulative IPC: 0.373873 (Simulation time: 3 hr 24 min 59 sec) 
Heartbeat CPU 0 instructions: 43000000 cycles: 97679806 heartbeat IPC: 0.508193 cumulative IPC: 0.401199 (Simulation time: 3 hr 25 min 7 sec) 
Heartbeat CPU 0 instructions: 53000000 cycles: 411035102 heartbeat IPC: 0.201953 cumulative IPC: 0.117486 (Simulation time: 3 hr 25 min 15 sec) 
Heartbeat CPU 0 instructions: 45000000 cycles: 98737691 heartbeat IPC: 0.535795 cumulative IPC: 0.417699 (Simulation time: 3 hr 25 min 19 sec) 
Heartbeat CPU 0 instructions: 50000001 cycles: 193435961 heartbeat IPC: 0.227352 cumulative IPC: 0.236247 (Simulation time: 3 hr 25 min 23 sec) 
Heartbeat CPU 0 instructions: 55000003 cycles: 165137373 heartbeat IPC: 0.313507 cumulative IPC: 0.308691 (Simulation time: 3 hr 25 min 28 sec) 
Finished CPU 0 instructions: 50000000 cycles: 161974148 cummulative IPC: 0.308691 (Simulation time: 3 hr 25 min 28 sec) 

ChampSim completed all CPUs

Region of Interest Statistics

CPU 0 cummulative IPC: 0.308691 instructions: 50000000 cycles: 161974148
LLC TOTAL     ACCESS:    2633439  HIT:     269773  MISS:    2363666
LLC LOAD      ACCESS:    1915756  HIT:     265824  MISS:    1649932
LLC RFO       ACCESS:          0  HIT:          0  MISS:          0
LLC PREFETCH  ACCESS:          0  HIT:          0  MISS:          0
LLC WRITEBACK ACCESS:     717683  HIT:       3949  MISS:     713734
Heartbeat CPU 0 instructions: 46000000 cycles: 500836941 heartbeat IPC: 0.0832251 cumulative IPC: 0.0822733 (Simulation time: 3 hr 25 min 32 sec) 
Heartbeat CPU 0 instructions: 46000000 cycles: 107027372 heartbeat IPC: 0.491288 cumulative IPC: 0.394729 (Simulation time: 3 hr 25 min 33 sec) 
Heartbeat CPU 0 instructions: 52000000 cycles: 544085629 heartbeat IPC: 0.0972822 cumulative IPC: 0.0867785 (Simulation time: 3 hr 25 min 35 sec) 
Heartbeat CPU 0 instructions: 50000001 cycles: 123580837 heartbeat IPC: 0.267792 cumulative IPC: 0.37061 (Simulation time: 3 hr 25 min 38 sec) 
Heartbeat CPU 0 instructions: 46000003 cycles: 100676774 heartbeat IPC: 0.515709 cumulative IPC: 0.419645 (Simulation time: 3 hr 25 min 46 sec) 
Heartbeat CPU 0 instructions: 44000000 cycles: 99635347 heartbeat IPC: 0.511367 cumulative IPC: 0.403427 (Simulation time: 3 hr 25 min 52 sec) 
Heartbeat CPU 0 instructions: 51000003 cycles: 197518155 heartbeat IPC: 0.244967 cumulative IPC: 0.23643 (Simulation time: 3 hr 25 min 55 sec) 
Heartbeat CPU 0 instructions: 54000002 cycles: 426195736 heartbeat IPC: 0.0659604 cumulative IPC: 0.115643 (Simulation time: 3 hr 25 min 58 sec) 
Heartbeat CPU 0 instructions: 47000002 cycles: 108942911 heartbeat IPC: 0.522047 cumulative IPC: 0.397034 (Simulation time: 3 hr 26 min 10 sec) 
Heartbeat CPU 0 instructions: 47000002 cycles: 512828805 heartbeat IPC: 0.08339 cumulative IPC: 0.0822995 (Simulation time: 3 hr 26 min 10 sec) 
Heartbeat CPU 0 instructions: 47000001 cycles: 102677081 heartbeat IPC: 0.499922 cumulative IPC: 0.421255 (Simulation time: 3 hr 26 min 15 sec) 
Heartbeat CPU 0 instructions: 51000000 cycles: 127310946 heartbeat IPC: 0.268088 cumulative IPC: 0.367555 (Simulation time: 3 hr 26 min 15 sec) 
Heartbeat CPU 0 instructions: 53000000 cycles: 557745955 heartbeat IPC: 0.0732047 cumulative IPC: 0.0864446 (Simulation time: 3 hr 26 min 17 sec) 
Heartbeat CPU 0 instructions: 55000002 cycles: 431736108 heartbeat IPC: 0.180493 cumulative IPC: 0.11648 (Simulation time: 3 hr 26 min 22 sec) 
Finished CPU 0 instructions: 50000001 cycles: 429259595 cummulative IPC: 0.11648 (Simulation time: 3 hr 26 min 22 sec) 

ChampSim completed all CPUs

Region of Interest Statistics

CPU 0 cummulative IPC: 0.11648 instructions: 50000001 cycles: 429259595
LLC TOTAL     ACCESS:    5613619  HIT:    2517747  MISS:    3095872
LLC LOAD      ACCESS:    4493013  HIT:    1858670  MISS:    2634343
LLC RFO       ACCESS:      98844  HIT:      68020  MISS:      30824
LLC PREFETCH  ACCESS:          0  HIT:          0  MISS:          0
LLC WRITEBACK ACCESS:    1021762  HIT:     591057  MISS:     430705
Heartbeat CPU 0 instructions: 52000000 cycles: 201944133 heartbeat IPC: 0.225938 cumulative IPC: 0.236196 (Simulation time: 3 hr 26 min 27 sec) 
Heartbeat CPU 0 instructions: 45000000 cycles: 101522187 heartbeat IPC: 0.529987 cumulative IPC: 0.40585 (Simulation time: 3 hr 26 min 32 sec) 
Heartbeat CPU 0 instructions: 48000000 cycles: 104650437 heartbeat IPC: 0.50675 cumulative IPC: 0.422914 (Simulation time: 3 hr 26 min 40 sec) 
Heartbeat CPU 0 instructions: 48000000 cycles: 110863305 heartbeat IPC: 0.520725 cumulative IPC: 0.39924 (Simulation time: 3 hr 26 min 40 sec) 
Heartbeat CPU 0 instructions: 48000000 cycles: 524527060 heartbeat IPC: 0.0854827 cumulative IPC: 0.0823709 (Simulation time: 3 hr 26 min 42 sec) 
Heartbeat CPU 0 instructions: 54000000 cycles: 565404434 heartbeat IPC: 0.130574 cumulative IPC: 0.087045 (Simulation time: 3 hr 26 min 42 sec) 
Heartbeat CPU 0 instructions: 52000000 cycles: 131049031 heartbeat IPC: 0.267517 cumulative IPC: 0.364653 (Simulation time: 3 hr 26 min 46 sec) 
Heartbeat CPU 0 instructions: 53000000 cycles: 206891428 heartbeat IPC: 0.202131 cumulative IPC: 0.23537 (Simulation time: 3 hr 26 min 55 sec) 
Heartbeat CPU 0 instructions: 49000001 cycles: 106624562 heartbeat IPC: 0.506554 cumulative IPC: 0.424507 (Simulation time: 3 hr 27 min 4 sec) 
Heartbeat CPU 0 instructions: 46000003 cycles: 103422047 heartbeat IPC: 0.526356 cumulative IPC: 0.408129 (Simulation time: 3 hr 27 min 4 sec) 
Heartbeat CPU 0 instructions: 49000000 cycles: 536648088 heartbeat IPC: 0.0825013 cumulative IPC: 0.0823738 (Simulation time: 3 hr 27 min 8 sec) 
Heartbeat CPU 0 instructions: 55000000 cycles: 574452276 heartbeat IPC: 0.110524 cumulative IPC: 0.0874164 (Simulation time: 3 hr 27 min 9 sec) 
Finished CPU 0 instructions: 50000003 cycles: 571975321 cummulative IPC: 0.0874164 (Simulation time: 3 hr 27 min 9 sec) 

ChampSim completed all CPUs

Region of Interest Statistics

CPU 0 cummulative IPC: 0.0874164 instructions: 50000003 cycles: 571975321
LLC TOTAL     ACCESS:    6474153  HIT:    3213430  MISS:    3260723
LLC LOAD      ACCESS:    5697320  HIT:    2723035  MISS:    2974285
LLC RFO       ACCESS:      65877  HIT:      40258  MISS:      25619
LLC PREFETCH  ACCESS:          0  HIT:          0  MISS:          0
LLC WRITEBACK ACCESS:     710956  HIT:     450137  MISS:     260819
Heartbeat CPU 0 instructions: 49000000 cycles: 113237584 heartbeat IPC: 0.42118 cumulative IPC: 0.399713 (Simulation time: 3 hr 27 min 10 sec) 
Heartbeat CPU 0 instructions: 53000000 cycles: 134859573 heartbeat IPC: 0.26243 cumulative IPC: 0.361718 (Simulation time: 3 hr 27 min 16 sec) 
Heartbeat CPU 0 instructions: 54000002 cycles: 211388710 heartbeat IPC: 0.222357 cumulative IPC: 0.235089 (Simulation time: 3 hr 27 min 19 sec) 
Heartbeat CPU 0 instructions: 47000001 cycles: 105386255 heartbeat IPC: 0.50911 cumulative IPC: 0.410066 (Simulation time: 3 hr 27 min 29 sec) 
Heartbeat CPU 0 instructions: 50000002 cycles: 113722438 heartbeat IPC: 0.140887 cumulative IPC: 0.40633 (Simulation time: 3 hr 27 min 31 sec) 
Heartbeat CPU 0 instructions: 50000002 cycles: 548745697 heartbeat IPC: 0.0826611 cumulative IPC: 0.0823802 (Simulation time: 3 hr 27 min 32 sec) 
Heartbeat CPU 0 instructions: 50000002 cycles: 115108958 heartbeat IPC: 0.534368 cumulative IPC: 0.401964 (Simulation time: 3 hr 27 min 33 sec) 
Heartbeat CPU 0 instructions: 54000001 cycles: 137311518 heartbeat IPC: 0.40784 cumulative IPC: 0.362555 (Simulation time: 3 hr 27 min 38 sec) 
Heartbeat CPU 0 instructions: 55000001 cycles: 215634986 heartbeat IPC: 0.2355 cumulative IPC: 0.235097 (Simulation time: 3 hr 27 min 43 sec) 
Finished CPU 0 instructions: 50000001 cycles: 212677985 cummulative IPC: 0.235097 (Simulation time: 3 hr 27 min 43 sec) 

ChampSim completed all CPUs

Region of Interest Statistics

CPU 0 cummulative IPC: 0.235097 instructions: 50000001 cycles: 212677985
LLC TOTAL     ACCESS:    1600850  HIT:     595837  MISS:    1005013
LLC LOAD      ACCESS:     958816  HIT:     245743  MISS:     713073
LLC RFO       ACCESS:     163979  HIT:      39142  MISS:     124837
LLC PREFETCH  ACCESS:          0  HIT:          0  MISS:          0
LLC WRITEBACK ACCESS:     478055  HIT:     310952  MISS:     167103
Heartbeat CPU 0 instructions: 51000003 cycles: 115704397 heartbeat IPC: 0.504552 cumulative IPC: 0.408057 (Simulation time: 3 hr 27 min 50 sec) 
Heartbeat CPU 0 instructions: 51000000 cycles: 117040151 heartbeat IPC: 0.517814 cumulative IPC: 0.403928 (Simulation time: 3 hr 27 min 52 sec) 
Heartbeat CPU 0 instructions: 48000000 cycles: 107368566 heartbeat IPC: 0.504461 cumulative IPC: 0.411858 (Simulation time: 3 hr 27 min 53 sec) 
Heartbeat CPU 0 instructions: 51000002 cycles: 560815747 heartbeat IPC: 0.0828497 cumulative IPC: 0.0823903 (Simulation time: 3 hr 27 min 54 sec) 
Heartbeat CPU 0 instructions: 55000002 cycles: 139643340 heartbeat IPC: 0.42885 cumulative IPC: 0.363679 (Simulation time: 3 hr 27 min 57 sec) 
Finished CPU 0 instructions: 50000001 cycles: 137483824 cummulative IPC: 0.363679 (Simulation time: 3 hr 27 min 57 sec) 

ChampSim completed all CPUs

Region of Interest Statistics

CPU 0 cummulative IPC: 0.363679 instructions: 50000001 cycles: 137483824
LLC TOTAL     ACCESS:    1605040  HIT:     754666  MISS:     850374
LLC LOAD      ACCESS:    1395674  HIT:     555580  MISS:     840094
LLC RFO       ACCESS:      12669  HIT:       2798  MISS:       9871
LLC PREFETCH  ACCESS:          0  HIT:          0  MISS:          0
LLC WRITEBACK ACCESS:     196697  HIT:     196288  MISS:        409
Heartbeat CPU 0 instructions: 52000000 cycles: 117708648 heartbeat IPC: 0.498938 cumulative IPC: 0.409645 (Simulation time: 3 hr 28 min 5 sec) 
Heartbeat CPU 0 instructions: 52000000 cycles: 118955105 heartbeat IPC: 0.522206 cumulative IPC: 0.405884 (Simulation time: 3 hr 28 min 8 sec) 
Heartbeat CPU 0 instructions: 49000001 cycles: 109314198 heartbeat IPC: 0.513972 cumulative IPC: 0.413726 (Simulation time: 3 hr 28 min 9 sec) 
Heartbeat CPU 0 instructions: 52000000 cycles: 572800985 heartbeat IPC: 0.0834358 cumulative IPC: 0.0824123 (Simulation time: 3 hr 28 min 11 sec) 
Heartbeat CPU 0 instructions: 53000003 cycles: 119690028 heartbeat IPC: 0.5047 cumulative IPC: 0.411258 (Simulation time: 3 hr 28 min 20 sec) 
Heartbeat CPU 0 instructions: 53000002 cycles: 120907677 heartbeat IPC: 0.512146 cumulative IPC: 0.407646 (Simulation time: 3 hr 28 min 24 sec) 
Heartbeat CPU 0 instructions: 53000000 cycles: 584926299 heartbeat IPC: 0.0824721 cumulative IPC: 0.0824136 (Simulation time: 3 hr 28 min 27 sec) 
Heartbeat CPU 0 instructions: 50000003 cycles: 117121637 heartbeat IPC: 0.128083 cumulative IPC: 0.394191 (Simulation time: 3 hr 28 min 28 sec) 
Heartbeat CPU 0 instructions: 54000002 cycles: 121584323 heartbeat IPC: 0.5279 cumulative IPC: 0.413121 (Simulation time: 3 hr 28 min 33 sec) 
Heartbeat CPU 0 instructions: 54000000 cycles: 123839738 heartbeat IPC: 0.341056 cumulative IPC: 0.406029 (Simulation time: 3 hr 28 min 37 sec) 
Heartbeat CPU 0 instructions: 54000000 cycles: 596911103 heartbeat IPC: 0.083439 cumulative IPC: 0.0824342 (Simulation time: 3 hr 28 min 40 sec) 
Heartbeat CPU 0 instructions: 51000000 cycles: 119054382 heartbeat IPC: 0.517397 cumulative IPC: 0.396242 (Simulation time: 3 hr 28 min 41 sec) 
Heartbeat CPU 0 instructions: 55000001 cycles: 123476595 heartbeat IPC: 0.528465 cumulative IPC: 0.414932 (Simulation time: 3 hr 28 min 44 sec) 
Finished CPU 0 instructions: 50000000 cycles: 120501562 cummulative IPC: 0.414932 (Simulation time: 3 hr 28 min 44 sec) 

ChampSim completed all CPUs

Region of Interest Statistics

CPU 0 cummulative IPC: 0.414932 instructions: 50000000 cycles: 120501562
LLC TOTAL     ACCESS:     585936  HIT:     156227  MISS:     429709
LLC LOAD      ACCESS:     317736  HIT:      61254  MISS:     256482
LLC RFO       ACCESS:     134057  HIT:      24850  MISS:     109207
LLC PREFETCH  ACCESS:          0  HIT:          0  MISS:          0
LLC WRITEBACK ACCESS:     134143  HIT:      70123  MISS:      64020
Heartbeat CPU 0 instructions: 55000000 cycles: 126354874 heartbeat IPC: 0.397593 cumulative IPC: 0.405856 (Simulation time: 3 hr 28 min 48 sec) 
Finished CPU 0 instructions: 50000000 cycles: 123196289 cummulative IPC: 0.405856 (Simulation time: 3 hr 28 min 48 sec) 

ChampSim completed all CPUs

Region of Interest Statistics

CPU 0 cummulative IPC: 0.405856 instructions: 50000000 cycles: 123196289
LLC TOTAL     ACCESS:     281706  HIT:     268076  MISS:      13630
LLC LOAD      ACCESS:     200385  HIT:     190850  MISS:       9535
LLC RFO       ACCESS:      23672  HIT:      19676  MISS:       3996
LLC PREFETCH  ACCESS:          0  HIT:          0  MISS:          0
LLC WRITEBACK ACCESS:      57649  HIT:      57550  MISS:         99
Heartbeat CPU 0 instructions: 52000000 cycles: 120998055 heartbeat IPC: 0.51449 cumulative IPC: 0.398189 (Simulation time: 3 hr 28 min 50 sec) 
Heartbeat CPU 0 instructions: 55000000 cycles: 608950293 heartbeat IPC: 0.0830621 cumulative IPC: 0.0824467 (Simulation time: 3 hr 28 min 50 sec) 
Finished CPU 0 instructions: 50000000 cycles: 606452460 cummulative IPC: 0.0824467 (Simulation time: 3 hr 28 min 50 sec) 

ChampSim completed all CPUs

Region of Interest Statistics

CPU 0 cummulative IPC: 0.0824467 instructions: 50000000 cycles: 606452460
LLC TOTAL     ACCESS:    7409440  HIT:    3952301  MISS:    3457139
LLC LOAD      ACCESS:    7242673  HIT:    3847435  MISS:    3395238
LLC RFO       ACCESS:      12944  HIT:       8453  MISS:       4491
LLC PREFETCH  ACCESS:          0  HIT:          0  MISS:          0
LLC WRITEBACK ACCESS:     153823  HIT:      96413  MISS:      57410
Heartbeat CPU 0 instructions: 53000003 cycles: 122959859 heartbeat IPC: 0.509736 cumulative IPC: 0.400013 (Simulation time: 3 hr 28 min 56 sec) 
Heartbeat CPU 0 instructions: 54000000 cycles: 124805188 heartbeat IPC: 0.541907 cumulative IPC: 0.402162 (Simulation time: 3 hr 29 min 1 sec) 
Heartbeat CPU 0 instructions: 55000001 cycles: 126665907 heartbeat IPC: 0.537427 cumulative IPC: 0.404197 (Simulation time: 3 hr 29 min 7 sec) 
Finished CPU 0 instructions: 50000001 cycles: 123702207 cummulative IPC: 0.404197 (Simulation time: 3 hr 29 min 7 sec) 

ChampSim completed all CPUs

Region of Interest Statistics

CPU 0 cummulative IPC: 0.404197 instructions: 50000001 cycles: 123702207
LLC TOTAL     ACCESS:     585845  HIT:     158519  MISS:     427326
LLC LOAD      ACCESS:     317737  HIT:      59612  MISS:     258125
LLC RFO       ACCESS:     134054  HIT:      25754  MISS:     108300
LLC PREFETCH  ACCESS:          0  HIT:          0  MISS:          0
LLC WRITEBACK ACCESS:     134054  HIT:      73153  MISS:      60901
