
*** ChampSim Multicore Out-of-Order Simulator ***

Warmup Instructions: 1000000
Simulation Instructions: 10000000
Configuration: 1
Number of CPUs: 1
LLC sets: 2048
LLC ways: 16
Off-chip DRAM Channels: 1 Width: 64-bit Data Rate: 1600 MT/s

CPU 0 runs /datasets/cs240c-wi22-a00-public/data/Assignment2-gz/astar_163B.trace.gz
Heartbeat CPU 0 instructions: 1000002 cycles: 530774 heartbeat IPC: 1.88404 cumulative IPC: 1.88404 (Simulation time: 0 hr 0 min 4 sec) 

Warmup complete CPU 0 instructions: 1000002 cycles: 530774 (Simulation time: 0 hr 0 min 4 sec) 

Heartbeat CPU 0 instructions: 2000003 cycles: 2872756 heartbeat IPC: 0.426989 cumulative IPC: 0.426989 (Simulation time: 0 hr 0 min 8 sec) 
Heartbeat CPU 0 instructions: 3000001 cycles: 5139590 heartbeat IPC: 0.441143 cumulative IPC: 0.433951 (Simulation time: 0 hr 0 min 12 sec) 
Heartbeat CPU 0 instructions: 4000000 cycles: 7393287 heartbeat IPC: 0.443715 cumulative IPC: 0.437157 (Simulation time: 0 hr 0 min 16 sec) 
Heartbeat CPU 0 instructions: 5000000 cycles: 9611064 heartbeat IPC: 0.450902 cumulative IPC: 0.440514 (Simulation time: 0 hr 0 min 20 sec) 
Heartbeat CPU 0 instructions: 6000001 cycles: 11782770 heartbeat IPC: 0.460468 cumulative IPC: 0.444366 (Simulation time: 0 hr 0 min 24 sec) 
Heartbeat CPU 0 instructions: 7000001 cycles: 13962156 heartbeat IPC: 0.458845 cumulative IPC: 0.446715 (Simulation time: 0 hr 0 min 28 sec) 
Heartbeat CPU 0 instructions: 8000000 cycles: 16112362 heartbeat IPC: 0.465071 cumulative IPC: 0.449248 (Simulation time: 0 hr 0 min 32 sec) 
Heartbeat CPU 0 instructions: 9000000 cycles: 18295810 heartbeat IPC: 0.457991 cumulative IPC: 0.450323 (Simulation time: 0 hr 0 min 35 sec) 
Heartbeat CPU 0 instructions: 10000000 cycles: 20538858 heartbeat IPC: 0.445822 cumulative IPC: 0.449818 (Simulation time: 0 hr 0 min 39 sec) 
Heartbeat CPU 0 instructions: 11000003 cycles: 22792189 heartbeat IPC: 0.443789 cumulative IPC: 0.449208 (Simulation time: 0 hr 0 min 43 sec) 
Finished CPU 0 instructions: 10000001 cycles: 22261415 cummulative IPC: 0.449208 (Simulation time: 0 hr 0 min 43 sec) 

ChampSim completed all CPUs

Region of Interest Statistics

CPU 0 cummulative IPC: 0.449208 instructions: 10000001 cycles: 22261415
LLC TOTAL     ACCESS:      50840  HIT:      25440  MISS:      25400
LLC LOAD      ACCESS:      28165  HIT:       6511  MISS:      21654
LLC RFO       ACCESS:       4041  HIT:        296  MISS:       3745
LLC PREFETCH  ACCESS:          0  HIT:          0  MISS:          0
LLC WRITEBACK ACCESS:      18634  HIT:      18633  MISS:          1

*** ChampSim Multicore Out-of-Order Simulator ***

Warmup Instructions: 1000000
Simulation Instructions: 10000000
Configuration: 1
Number of CPUs: 1
LLC sets: 2048
LLC ways: 16
Off-chip DRAM Channels: 1 Width: 64-bit Data Rate: 1600 MT/s

CPU 0 runs /datasets/cs240c-wi22-a00-public/data/Assignment2-gz/astar_23B.trace.gz
Heartbeat CPU 0 instructions: 1000000 cycles: 360103 heartbeat IPC: 2.77698 cumulative IPC: 2.77698 (Simulation time: 0 hr 0 min 3 sec) 

Warmup complete CPU 0 instructions: 1000004 cycles: 360104 (Simulation time: 0 hr 0 min 3 sec) 

Heartbeat CPU 0 instructions: 2000003 cycles: 3277268 heartbeat IPC: 0.3428 cumulative IPC: 0.342798 (Simulation time: 0 hr 0 min 6 sec) 
Heartbeat CPU 0 instructions: 3000000 cycles: 5972912 heartbeat IPC: 0.370968 cumulative IPC: 0.356327 (Simulation time: 0 hr 0 min 9 sec) 
Heartbeat CPU 0 instructions: 4000000 cycles: 8754877 heartbeat IPC: 0.359458 cumulative IPC: 0.357365 (Simulation time: 0 hr 0 min 12 sec) 
Heartbeat CPU 0 instructions: 5000002 cycles: 11500578 heartbeat IPC: 0.364206 cumulative IPC: 0.359051 (Simulation time: 0 hr 0 min 15 sec) 
Heartbeat CPU 0 instructions: 6000000 cycles: 14284641 heartbeat IPC: 0.359187 cumulative IPC: 0.359078 (Simulation time: 0 hr 0 min 18 sec) 
Heartbeat CPU 0 instructions: 7000000 cycles: 17401121 heartbeat IPC: 0.320875 cumulative IPC: 0.352091 (Simulation time: 0 hr 0 min 21 sec) 
Heartbeat CPU 0 instructions: 8000000 cycles: 20190236 heartbeat IPC: 0.358537 cumulative IPC: 0.352998 (Simulation time: 0 hr 0 min 25 sec) 
Heartbeat CPU 0 instructions: 9000000 cycles: 22998084 heartbeat IPC: 0.356145 cumulative IPC: 0.353388 (Simulation time: 0 hr 0 min 28 sec) 
Heartbeat CPU 0 instructions: 10000003 cycles: 25961620 heartbeat IPC: 0.337436 cumulative IPC: 0.351542 (Simulation time: 0 hr 0 min 31 sec) 
Heartbeat CPU 0 instructions: 11000000 cycles: 29141424 heartbeat IPC: 0.314484 cumulative IPC: 0.347447 (Simulation time: 0 hr 0 min 35 sec) 
Finished CPU 0 instructions: 10000000 cycles: 28781322 cummulative IPC: 0.347448 (Simulation time: 0 hr 0 min 35 sec) 

ChampSim completed all CPUs

Region of Interest Statistics

CPU 0 cummulative IPC: 0.347448 instructions: 10000000 cycles: 28781322
LLC TOTAL     ACCESS:     275774  HIT:     251607  MISS:      24167
LLC LOAD      ACCESS:     204727  HIT:     180801  MISS:      23926
LLC RFO       ACCESS:       1164  HIT:       1163  MISS:          1
LLC PREFETCH  ACCESS:          0  HIT:          0  MISS:          0
LLC WRITEBACK ACCESS:      69883  HIT:      69643  MISS:        240

*** ChampSim Multicore Out-of-Order Simulator ***

Warmup Instructions: 1000000
Simulation Instructions: 10000000
Configuration: 1
Number of CPUs: 1
LLC sets: 2048
LLC ways: 16
Off-chip DRAM Channels: 1 Width: 64-bit Data Rate: 1600 MT/s

CPU 0 runs /datasets/cs240c-wi22-a00-public/data/Assignment2-gz/astar_313B.trace.gz
Heartbeat CPU 0 instructions: 1000001 cycles: 678650 heartbeat IPC: 1.47352 cumulative IPC: 1.47352 (Simulation time: 0 hr 0 min 5 sec) 

Warmup complete CPU 0 instructions: 1000001 cycles: 678650 (Simulation time: 0 hr 0 min 5 sec) 

Heartbeat CPU 0 instructions: 2000003 cycles: 11138805 heartbeat IPC: 0.0956011 cumulative IPC: 0.0956011 (Simulation time: 0 hr 0 min 12 sec) 
Heartbeat CPU 0 instructions: 3000003 cycles: 18454641 heartbeat IPC: 0.13669 cumulative IPC: 0.112511 (Simulation time: 0 hr 0 min 17 sec) 
Heartbeat CPU 0 instructions: 4000000 cycles: 25747704 heartbeat IPC: 0.137116 cumulative IPC: 0.119669 (Simulation time: 0 hr 0 min 21 sec) 
Heartbeat CPU 0 instructions: 5000002 cycles: 33304418 heartbeat IPC: 0.132333 cumulative IPC: 0.122603 (Simulation time: 0 hr 0 min 26 sec) 
Heartbeat CPU 0 instructions: 6000001 cycles: 42837429 heartbeat IPC: 0.104899 cumulative IPC: 0.118599 (Simulation time: 0 hr 0 min 32 sec) 
Heartbeat CPU 0 instructions: 7000000 cycles: 53282911 heartbeat IPC: 0.0957351 cumulative IPC: 0.114059 (Simulation time: 0 hr 0 min 38 sec) 
Heartbeat CPU 0 instructions: 8000000 cycles: 64137724 heartbeat IPC: 0.092125 cumulative IPC: 0.110307 (Simulation time: 0 hr 0 min 44 sec) 
Heartbeat CPU 0 instructions: 9000001 cycles: 74264184 heartbeat IPC: 0.0987513 cumulative IPC: 0.108717 (Simulation time: 0 hr 0 min 50 sec) 
Heartbeat CPU 0 instructions: 10000002 cycles: 81710175 heartbeat IPC: 0.134301 cumulative IPC: 0.111068 (Simulation time: 0 hr 0 min 55 sec) 
Heartbeat CPU 0 instructions: 11000000 cycles: 88762196 heartbeat IPC: 0.141803 cumulative IPC: 0.113529 (Simulation time: 0 hr 1 min 0 sec) 
Finished CPU 0 instructions: 10000003 cycles: 88083548 cummulative IPC: 0.113529 (Simulation time: 0 hr 1 min 0 sec) 

ChampSim completed all CPUs

Region of Interest Statistics

CPU 0 cummulative IPC: 0.113529 instructions: 10000003 cycles: 88083548
LLC TOTAL     ACCESS:    1128784  HIT:     417971  MISS:     710813
LLC LOAD      ACCESS:     241903  HIT:      42012  MISS:     199891
LLC RFO       ACCESS:     402462  HIT:     146767  MISS:     255695
LLC PREFETCH  ACCESS:          0  HIT:          0  MISS:          0
LLC WRITEBACK ACCESS:     484419  HIT:     229192  MISS:     255227

*** ChampSim Multicore Out-of-Order Simulator ***

Warmup Instructions: 1000000
Simulation Instructions: 10000000
Configuration: 1
Number of CPUs: 1
LLC sets: 2048
LLC ways: 16
Off-chip DRAM Channels: 1 Width: 64-bit Data Rate: 1600 MT/s

CPU 0 runs /datasets/cs240c-wi22-a00-public/data/Assignment2-gz/bzip2_183B.trace.gz
Heartbeat CPU 0 instructions: 1000000 cycles: 448069 heartbeat IPC: 2.2318 cumulative IPC: 2.2318 (Simulation time: 0 hr 0 min 3 sec) 

Warmup complete CPU 0 instructions: 1000002 cycles: 448073 (Simulation time: 0 hr 0 min 3 sec) 

Heartbeat CPU 0 instructions: 2000001 cycles: 1589751 heartbeat IPC: 0.875902 cumulative IPC: 0.875903 (Simulation time: 0 hr 0 min 6 sec) 
Heartbeat CPU 0 instructions: 3000001 cycles: 2586057 heartbeat IPC: 1.00371 cumulative IPC: 0.93546 (Simulation time: 0 hr 0 min 10 sec) 
Heartbeat CPU 0 instructions: 4000000 cycles: 4020775 heartbeat IPC: 0.697 cumulative IPC: 0.8397 (Simulation time: 0 hr 0 min 13 sec) 
Heartbeat CPU 0 instructions: 5000000 cycles: 5233575 heartbeat IPC: 0.824538 cumulative IPC: 0.835858 (Simulation time: 0 hr 0 min 16 sec) 
Heartbeat CPU 0 instructions: 6000001 cycles: 6707509 heartbeat IPC: 0.678457 cumulative IPC: 0.798794 (Simulation time: 0 hr 0 min 20 sec) 
Heartbeat CPU 0 instructions: 7000001 cycles: 8286603 heartbeat IPC: 0.633274 cumulative IPC: 0.76545 (Simulation time: 0 hr 0 min 23 sec) 
Heartbeat CPU 0 instructions: 8000000 cycles: 9508928 heartbeat IPC: 0.818112 cumulative IPC: 0.772554 (Simulation time: 0 hr 0 min 26 sec) 
Heartbeat CPU 0 instructions: 9000003 cycles: 10806487 heartbeat IPC: 0.77068 cumulative IPC: 0.772319 (Simulation time: 0 hr 0 min 29 sec) 
Heartbeat CPU 0 instructions: 10000000 cycles: 12124728 heartbeat IPC: 0.758584 cumulative IPC: 0.770769 (Simulation time: 0 hr 0 min 33 sec) 
Heartbeat CPU 0 instructions: 11000000 cycles: 13674310 heartbeat IPC: 0.645335 cumulative IPC: 0.756073 (Simulation time: 0 hr 0 min 36 sec) 
Finished CPU 0 instructions: 10000001 cycles: 13226239 cummulative IPC: 0.756073 (Simulation time: 0 hr 0 min 36 sec) 

ChampSim completed all CPUs

Region of Interest Statistics

CPU 0 cummulative IPC: 0.756073 instructions: 10000001 cycles: 13226239
LLC TOTAL     ACCESS:      90603  HIT:      67076  MISS:      23527
LLC LOAD      ACCESS:      39830  HIT:      25728  MISS:      14102
LLC RFO       ACCESS:      22854  HIT:      13439  MISS:       9415
LLC PREFETCH  ACCESS:          0  HIT:          0  MISS:          0
LLC WRITEBACK ACCESS:      27919  HIT:      27909  MISS:         10

*** ChampSim Multicore Out-of-Order Simulator ***

Warmup Instructions: 1000000
Simulation Instructions: 10000000
Configuration: 1
Number of CPUs: 1
LLC sets: 2048
LLC ways: 16
Off-chip DRAM Channels: 1 Width: 64-bit Data Rate: 1600 MT/s

CPU 0 runs /datasets/cs240c-wi22-a00-public/data/Assignment2-gz/bzip2_259B.trace.gz
Heartbeat CPU 0 instructions: 1000002 cycles: 428954 heartbeat IPC: 2.33126 cumulative IPC: 2.33126 (Simulation time: 0 hr 0 min 4 sec) 

Warmup complete CPU 0 instructions: 1000002 cycles: 428954 (Simulation time: 0 hr 0 min 4 sec) 

Heartbeat CPU 0 instructions: 2000003 cycles: 1623568 heartbeat IPC: 0.837091 cumulative IPC: 0.837091 (Simulation time: 0 hr 0 min 6 sec) 
Heartbeat CPU 0 instructions: 3000000 cycles: 2760216 heartbeat IPC: 0.879777 cumulative IPC: 0.857904 (Simulation time: 0 hr 0 min 9 sec) 
Heartbeat CPU 0 instructions: 4000000 cycles: 3886158 heartbeat IPC: 0.888145 cumulative IPC: 0.867753 (Simulation time: 0 hr 0 min 13 sec) 
Heartbeat CPU 0 instructions: 5000001 cycles: 4925032 heartbeat IPC: 0.962582 cumulative IPC: 0.889664 (Simulation time: 0 hr 0 min 16 sec) 
Heartbeat CPU 0 instructions: 6000002 cycles: 5952448 heartbeat IPC: 0.973317 cumulative IPC: 0.905224 (Simulation time: 0 hr 0 min 19 sec) 
Heartbeat CPU 0 instructions: 7000003 cycles: 6976191 heartbeat IPC: 0.976809 cumulative IPC: 0.916417 (Simulation time: 0 hr 0 min 22 sec) 
Heartbeat CPU 0 instructions: 8000000 cycles: 8039916 heartbeat IPC: 0.94009 cumulative IPC: 0.919726 (Simulation time: 0 hr 0 min 26 sec) 
Heartbeat CPU 0 instructions: 9000000 cycles: 9065596 heartbeat IPC: 0.974963 cumulative IPC: 0.926286 (Simulation time: 0 hr 0 min 29 sec) 
Heartbeat CPU 0 instructions: 10000000 cycles: 9923444 heartbeat IPC: 1.16571 cumulative IPC: 0.947918 (Simulation time: 0 hr 0 min 32 sec) 
Heartbeat CPU 0 instructions: 11000002 cycles: 10905114 heartbeat IPC: 1.01867 cumulative IPC: 0.954548 (Simulation time: 0 hr 0 min 35 sec) 
Finished CPU 0 instructions: 10000000 cycles: 10476160 cummulative IPC: 0.954548 (Simulation time: 0 hr 0 min 35 sec) 

ChampSim completed all CPUs

Region of Interest Statistics

CPU 0 cummulative IPC: 0.954548 instructions: 10000000 cycles: 10476160
LLC TOTAL     ACCESS:      47217  HIT:      22736  MISS:      24481
LLC LOAD      ACCESS:       4408  HIT:        954  MISS:       3454
LLC RFO       ACCESS:      21033  HIT:          6  MISS:      21027
LLC PREFETCH  ACCESS:          0  HIT:          0  MISS:          0
LLC WRITEBACK ACCESS:      21776  HIT:      21776  MISS:          0

*** ChampSim Multicore Out-of-Order Simulator ***

Warmup Instructions: 1000000
Simulation Instructions: 10000000
Configuration: 1
Number of CPUs: 1
LLC sets: 2048
LLC ways: 16
Off-chip DRAM Channels: 1 Width: 64-bit Data Rate: 1600 MT/s

CPU 0 runs /datasets/cs240c-wi22-a00-public/data/Assignment2-gz/bzip2_281B.trace.gz
Heartbeat CPU 0 instructions: 1000000 cycles: 445723 heartbeat IPC: 2.24355 cumulative IPC: 2.24355 (Simulation time: 0 hr 0 min 4 sec) 

Warmup complete CPU 0 instructions: 1000004 cycles: 445724 (Simulation time: 0 hr 0 min 4 sec) 

Heartbeat CPU 0 instructions: 2000000 cycles: 2274656 heartbeat IPC: 0.546767 cumulative IPC: 0.546765 (Simulation time: 0 hr 0 min 8 sec) 
Heartbeat CPU 0 instructions: 3000000 cycles: 4271455 heartbeat IPC: 0.500802 cumulative IPC: 0.522775 (Simulation time: 0 hr 0 min 11 sec) 
Heartbeat CPU 0 instructions: 4000000 cycles: 6033336 heartbeat IPC: 0.567575 cumulative IPC: 0.536901 (Simulation time: 0 hr 0 min 14 sec) 
Heartbeat CPU 0 instructions: 5000002 cycles: 6987229 heartbeat IPC: 1.04834 cumulative IPC: 0.61148 (Simulation time: 0 hr 0 min 18 sec) 
Heartbeat CPU 0 instructions: 6000000 cycles: 8365308 heartbeat IPC: 0.725646 cumulative IPC: 0.631346 (Simulation time: 0 hr 0 min 21 sec) 
Heartbeat CPU 0 instructions: 7000002 cycles: 9576653 heartbeat IPC: 0.82553 cumulative IPC: 0.657107 (Simulation time: 0 hr 0 min 24 sec) 
Heartbeat CPU 0 instructions: 8000000 cycles: 10686776 heartbeat IPC: 0.900799 cumulative IPC: 0.683523 (Simulation time: 0 hr 0 min 27 sec) 
Heartbeat CPU 0 instructions: 9000000 cycles: 11986612 heartbeat IPC: 0.769328 cumulative IPC: 0.693187 (Simulation time: 0 hr 0 min 31 sec) 
Heartbeat CPU 0 instructions: 10000001 cycles: 13374914 heartbeat IPC: 0.720305 cumulative IPC: 0.696099 (Simulation time: 0 hr 0 min 34 sec) 
Heartbeat CPU 0 instructions: 11000000 cycles: 14871721 heartbeat IPC: 0.668088 cumulative IPC: 0.693193 (Simulation time: 0 hr 0 min 37 sec) 
Finished CPU 0 instructions: 10000000 cycles: 14425998 cummulative IPC: 0.693193 (Simulation time: 0 hr 0 min 37 sec) 

ChampSim completed all CPUs

Region of Interest Statistics

CPU 0 cummulative IPC: 0.693193 instructions: 10000000 cycles: 14425998
LLC TOTAL     ACCESS:     127993  HIT:      92157  MISS:      35836
LLC LOAD      ACCESS:      77449  HIT:      59445  MISS:      18004
LLC RFO       ACCESS:      23835  HIT:       6039  MISS:      17796
LLC PREFETCH  ACCESS:          0  HIT:          0  MISS:          0
LLC WRITEBACK ACCESS:      26709  HIT:      26673  MISS:         36

*** ChampSim Multicore Out-of-Order Simulator ***

Warmup Instructions: 1000000
Simulation Instructions: 10000000
Configuration: 1
Number of CPUs: 1
LLC sets: 2048
LLC ways: 16
Off-chip DRAM Channels: 1 Width: 64-bit Data Rate: 1600 MT/s

CPU 0 runs /datasets/cs240c-wi22-a00-public/data/Assignment2-gz/cactusADM_1039B.trace.gz
Heartbeat CPU 0 instructions: 1000000 cycles: 595112 heartbeat IPC: 1.68036 cumulative IPC: 1.68036 (Simulation time: 0 hr 0 min 5 sec) 

Warmup complete CPU 0 instructions: 1000004 cycles: 595113 (Simulation time: 0 hr 0 min 5 sec) 

Heartbeat CPU 0 instructions: 2000003 cycles: 2717463 heartbeat IPC: 0.471177 cumulative IPC: 0.471175 (Simulation time: 0 hr 0 min 10 sec) 
Heartbeat CPU 0 instructions: 3000003 cycles: 4845136 heartbeat IPC: 0.469997 cumulative IPC: 0.470585 (Simulation time: 0 hr 0 min 14 sec) 
Heartbeat CPU 0 instructions: 4000000 cycles: 6885225 heartbeat IPC: 0.490173 cumulative IPC: 0.476938 (Simulation time: 0 hr 0 min 19 sec) 
Heartbeat CPU 0 instructions: 5000001 cycles: 8973021 heartbeat IPC: 0.478974 cumulative IPC: 0.477446 (Simulation time: 0 hr 0 min 23 sec) 
Heartbeat CPU 0 instructions: 6000002 cycles: 11094133 heartbeat IPC: 0.471451 cumulative IPC: 0.476235 (Simulation time: 0 hr 0 min 28 sec) 
Heartbeat CPU 0 instructions: 7000000 cycles: 13223547 heartbeat IPC: 0.469612 cumulative IPC: 0.475118 (Simulation time: 0 hr 0 min 32 sec) 
Heartbeat CPU 0 instructions: 8000000 cycles: 15360976 heartbeat IPC: 0.467852 cumulative IPC: 0.474066 (Simulation time: 0 hr 0 min 36 sec) 
Heartbeat CPU 0 instructions: 9000002 cycles: 17434106 heartbeat IPC: 0.482363 cumulative IPC: 0.475088 (Simulation time: 0 hr 0 min 41 sec) 
Heartbeat CPU 0 instructions: 10000003 cycles: 20166732 heartbeat IPC: 0.365949 cumulative IPC: 0.459849 (Simulation time: 0 hr 0 min 45 sec) 
Heartbeat CPU 0 instructions: 11000003 cycles: 26746205 heartbeat IPC: 0.151988 cumulative IPC: 0.382393 (Simulation time: 0 hr 0 min 51 sec) 
Finished CPU 0 instructions: 10000003 cycles: 26151093 cummulative IPC: 0.382393 (Simulation time: 0 hr 0 min 51 sec) 

ChampSim completed all CPUs

Region of Interest Statistics

CPU 0 cummulative IPC: 0.382393 instructions: 10000003 cycles: 26151093
LLC TOTAL     ACCESS:     130126  HIT:      29753  MISS:     100373
LLC LOAD      ACCESS:      67899  HIT:        129  MISS:      67770
LLC RFO       ACCESS:      31388  HIT:        240  MISS:      31148
LLC PREFETCH  ACCESS:          0  HIT:          0  MISS:          0
LLC WRITEBACK ACCESS:      30839  HIT:      29384  MISS:       1455

*** ChampSim Multicore Out-of-Order Simulator ***

Warmup Instructions: 1000000
Simulation Instructions: 10000000
Configuration: 1
Number of CPUs: 1
LLC sets: 2048
LLC ways: 16
Off-chip DRAM Channels: 1 Width: 64-bit Data Rate: 1600 MT/s

CPU 0 runs /datasets/cs240c-wi22-a00-public/data/Assignment2-gz/cactusADM_1495B.trace.gz
Heartbeat CPU 0 instructions: 1000003 cycles: 593354 heartbeat IPC: 1.68534 cumulative IPC: 1.68534 (Simulation time: 0 hr 0 min 4 sec) 

Warmup complete CPU 0 instructions: 1000003 cycles: 593354 (Simulation time: 0 hr 0 min 4 sec) 

Heartbeat CPU 0 instructions: 2000000 cycles: 2666976 heartbeat IPC: 0.482247 cumulative IPC: 0.482247 (Simulation time: 0 hr 0 min 9 sec) 
Heartbeat CPU 0 instructions: 3000003 cycles: 4775429 heartbeat IPC: 0.474283 cumulative IPC: 0.478231 (Simulation time: 0 hr 0 min 14 sec) 
Heartbeat CPU 0 instructions: 4000000 cycles: 6885215 heartbeat IPC: 0.47398 cumulative IPC: 0.476806 (Simulation time: 0 hr 0 min 19 sec) 
Heartbeat CPU 0 instructions: 5000000 cycles: 8984197 heartbeat IPC: 0.476421 cumulative IPC: 0.47671 (Simulation time: 0 hr 0 min 24 sec) 
Heartbeat CPU 0 instructions: 6000001 cycles: 11009154 heartbeat IPC: 0.493838 cumulative IPC: 0.48004 (Simulation time: 0 hr 0 min 29 sec) 
Heartbeat CPU 0 instructions: 7000000 cycles: 13104824 heartbeat IPC: 0.477174 cumulative IPC: 0.47956 (Simulation time: 0 hr 0 min 34 sec) 
Heartbeat CPU 0 instructions: 8000000 cycles: 20408628 heartbeat IPC: 0.136915 cumulative IPC: 0.353263 (Simulation time: 0 hr 0 min 39 sec) 
Heartbeat CPU 0 instructions: 9000002 cycles: 22521260 heartbeat IPC: 0.473344 cumulative IPC: 0.364832 (Simulation time: 0 hr 0 min 44 sec) 
Heartbeat CPU 0 instructions: 10000002 cycles: 24583149 heartbeat IPC: 0.484992 cumulative IPC: 0.375159 (Simulation time: 0 hr 0 min 49 sec) 
Heartbeat CPU 0 instructions: 11000000 cycles: 26658770 heartbeat IPC: 0.481783 cumulative IPC: 0.38365 (Simulation time: 0 hr 0 min 54 sec) 
Finished CPU 0 instructions: 10000001 cycles: 26065417 cummulative IPC: 0.38365 (Simulation time: 0 hr 0 min 54 sec) 

ChampSim completed all CPUs

Region of Interest Statistics

CPU 0 cummulative IPC: 0.38365 instructions: 10000001 cycles: 26065417
LLC TOTAL     ACCESS:     130799  HIT:      30391  MISS:     100408
LLC LOAD      ACCESS:      67776  HIT:        755  MISS:      67021
LLC RFO       ACCESS:      31386  HIT:        256  MISS:      31130
LLC PREFETCH  ACCESS:          0  HIT:          0  MISS:          0
LLC WRITEBACK ACCESS:      31637  HIT:      29380  MISS:       2257

*** ChampSim Multicore Out-of-Order Simulator ***

Warmup Instructions: 1000000
Simulation Instructions: 10000000
Configuration: 1
Number of CPUs: 1
LLC sets: 2048
LLC ways: 16
Off-chip DRAM Channels: 1 Width: 64-bit Data Rate: 1600 MT/s

CPU 0 runs /datasets/cs240c-wi22-a00-public/data/Assignment2-gz/cactusADM_734B.trace.gz
Heartbeat CPU 0 instructions: 1000003 cycles: 592365 heartbeat IPC: 1.68815 cumulative IPC: 1.68815 (Simulation time: 0 hr 0 min 4 sec) 

Warmup complete CPU 0 instructions: 1000003 cycles: 592365 (Simulation time: 0 hr 0 min 4 sec) 

Heartbeat CPU 0 instructions: 2000001 cycles: 2697675 heartbeat IPC: 0.474988 cumulative IPC: 0.474988 (Simulation time: 0 hr 0 min 9 sec) 
Heartbeat CPU 0 instructions: 3000000 cycles: 4811187 heartbeat IPC: 0.473146 cumulative IPC: 0.474065 (Simulation time: 0 hr 0 min 14 sec) 
Heartbeat CPU 0 instructions: 4000000 cycles: 6870004 heartbeat IPC: 0.485716 cumulative IPC: 0.477886 (Simulation time: 0 hr 0 min 19 sec) 
Heartbeat CPU 0 instructions: 5000000 cycles: 8933575 heartbeat IPC: 0.484597 cumulative IPC: 0.479546 (Simulation time: 0 hr 0 min 24 sec) 
Heartbeat CPU 0 instructions: 6000002 cycles: 11047911 heartbeat IPC: 0.472963 cumulative IPC: 0.478215 (Simulation time: 0 hr 0 min 29 sec) 
Heartbeat CPU 0 instructions: 7000001 cycles: 13153179 heartbeat IPC: 0.474998 cumulative IPC: 0.477676 (Simulation time: 0 hr 0 min 34 sec) 
Heartbeat CPU 0 instructions: 8000000 cycles: 15244033 heartbeat IPC: 0.478273 cumulative IPC: 0.477761 (Simulation time: 0 hr 0 min 39 sec) 
Heartbeat CPU 0 instructions: 9000001 cycles: 17265423 heartbeat IPC: 0.49471 cumulative IPC: 0.479816 (Simulation time: 0 hr 0 min 43 sec) 
Heartbeat CPU 0 instructions: 10000002 cycles: 20426647 heartbeat IPC: 0.316333 cumulative IPC: 0.45376 (Simulation time: 0 hr 0 min 49 sec) 
Heartbeat CPU 0 instructions: 11000003 cycles: 27448883 heartbeat IPC: 0.142405 cumulative IPC: 0.372349 (Simulation time: 0 hr 0 min 54 sec) 
Finished CPU 0 instructions: 10000000 cycles: 26856518 cummulative IPC: 0.372349 (Simulation time: 0 hr 0 min 54 sec) 

ChampSim completed all CPUs

Region of Interest Statistics

CPU 0 cummulative IPC: 0.372349 instructions: 10000000 cycles: 26856518
LLC TOTAL     ACCESS:     130145  HIT:      29220  MISS:     100925
LLC LOAD      ACCESS:      67776  HIT:         20  MISS:      67756
LLC RFO       ACCESS:      31386  HIT:        320  MISS:      31066
LLC PREFETCH  ACCESS:          0  HIT:          0  MISS:          0
LLC WRITEBACK ACCESS:      30983  HIT:      28880  MISS:       2103

*** ChampSim Multicore Out-of-Order Simulator ***

Warmup Instructions: 1000000
Simulation Instructions: 10000000
Configuration: 1
Number of CPUs: 1
LLC sets: 2048
LLC ways: 16
Off-chip DRAM Channels: 1 Width: 64-bit Data Rate: 1600 MT/s

CPU 0 runs /datasets/cs240c-wi22-a00-public/data/Assignment2-gz/calculix_2655B.trace.gz
Heartbeat CPU 0 instructions: 1000003 cycles: 371402 heartbeat IPC: 2.69251 cumulative IPC: 2.69251 (Simulation time: 0 hr 0 min 2 sec) 

Warmup complete CPU 0 instructions: 1000003 cycles: 371402 (Simulation time: 0 hr 0 min 2 sec) 

Heartbeat CPU 0 instructions: 2000001 cycles: 998588 heartbeat IPC: 1.59442 cumulative IPC: 1.59442 (Simulation time: 0 hr 0 min 5 sec) 
Heartbeat CPU 0 instructions: 3000000 cycles: 1637272 heartbeat IPC: 1.56572 cumulative IPC: 1.57994 (Simulation time: 0 hr 0 min 8 sec) 
Heartbeat CPU 0 instructions: 4000000 cycles: 2654869 heartbeat IPC: 0.982707 cumulative IPC: 1.31379 (Simulation time: 0 hr 0 min 12 sec) 
Heartbeat CPU 0 instructions: 5000000 cycles: 3263973 heartbeat IPC: 1.64176 cumulative IPC: 1.38285 (Simulation time: 0 hr 0 min 15 sec) 
Heartbeat CPU 0 instructions: 6000003 cycles: 3843676 heartbeat IPC: 1.72503 cumulative IPC: 1.43998 (Simulation time: 0 hr 0 min 18 sec) 
Heartbeat CPU 0 instructions: 7000000 cycles: 4390993 heartbeat IPC: 1.82709 cumulative IPC: 1.49269 (Simulation time: 0 hr 0 min 21 sec) 
Heartbeat CPU 0 instructions: 8000000 cycles: 4938563 heartbeat IPC: 1.82625 cumulative IPC: 1.53268 (Simulation time: 0 hr 0 min 24 sec) 
Heartbeat CPU 0 instructions: 9000000 cycles: 5484995 heartbeat IPC: 1.83005 cumulative IPC: 1.56446 (Simulation time: 0 hr 0 min 27 sec) 
Heartbeat CPU 0 instructions: 10000002 cycles: 6451367 heartbeat IPC: 1.0348 cumulative IPC: 1.48027 (Simulation time: 0 hr 0 min 30 sec) 
Heartbeat CPU 0 instructions: 11000001 cycles: 7066505 heartbeat IPC: 1.62565 cumulative IPC: 1.49363 (Simulation time: 0 hr 0 min 33 sec) 
Finished CPU 0 instructions: 10000002 cycles: 6695104 cummulative IPC: 1.49363 (Simulation time: 0 hr 0 min 33 sec) 

ChampSim completed all CPUs

Region of Interest Statistics

CPU 0 cummulative IPC: 1.49363 instructions: 10000002 cycles: 6695104
LLC TOTAL     ACCESS:     107138  HIT:      91843  MISS:      15295
LLC LOAD      ACCESS:      99291  HIT:      84040  MISS:      15251
LLC RFO       ACCESS:         40  HIT:         36  MISS:          4
LLC PREFETCH  ACCESS:          0  HIT:          0  MISS:          0
LLC WRITEBACK ACCESS:       7807  HIT:       7767  MISS:         40

*** ChampSim Multicore Out-of-Order Simulator ***

Warmup Instructions: 1000000
Simulation Instructions: 10000000
Configuration: 1
Number of CPUs: 1
LLC sets: 2048
LLC ways: 16
Off-chip DRAM Channels: 1 Width: 64-bit Data Rate: 1600 MT/s

CPU 0 runs /datasets/cs240c-wi22-a00-public/data/Assignment2-gz/calculix_2670B.trace.gz
Heartbeat CPU 0 instructions: 1000003 cycles: 520140 heartbeat IPC: 1.92257 cumulative IPC: 1.92257 (Simulation time: 0 hr 0 min 2 sec) 

Warmup complete CPU 0 instructions: 1000003 cycles: 520140 (Simulation time: 0 hr 0 min 2 sec) 

Heartbeat CPU 0 instructions: 2000001 cycles: 1031883 heartbeat IPC: 1.9541 cumulative IPC: 1.9541 (Simulation time: 0 hr 0 min 5 sec) 
Heartbeat CPU 0 instructions: 3000003 cycles: 1508602 heartbeat IPC: 2.09768 cumulative IPC: 2.02335 (Simulation time: 0 hr 0 min 8 sec) 
Heartbeat CPU 0 instructions: 4000000 cycles: 1982350 heartbeat IPC: 2.11082 cumulative IPC: 2.05169 (Simulation time: 0 hr 0 min 11 sec) 
Heartbeat CPU 0 instructions: 5000000 cycles: 2459320 heartbeat IPC: 2.09657 cumulative IPC: 2.06273 (Simulation time: 0 hr 0 min 14 sec) 
Heartbeat CPU 0 instructions: 6000001 cycles: 2932872 heartbeat IPC: 2.1117 cumulative IPC: 2.07234 (Simulation time: 0 hr 0 min 17 sec) 
Heartbeat CPU 0 instructions: 7000001 cycles: 3409905 heartbeat IPC: 2.09629 cumulative IPC: 2.07629 (Simulation time: 0 hr 0 min 20 sec) 
Heartbeat CPU 0 instructions: 8000000 cycles: 3883218 heartbeat IPC: 2.11276 cumulative IPC: 2.08143 (Simulation time: 0 hr 0 min 23 sec) 
Heartbeat CPU 0 instructions: 9000001 cycles: 4359591 heartbeat IPC: 2.0992 cumulative IPC: 2.08363 (Simulation time: 0 hr 0 min 26 sec) 
Heartbeat CPU 0 instructions: 10000001 cycles: 4833032 heartbeat IPC: 2.1122 cumulative IPC: 2.08677 (Simulation time: 0 hr 0 min 29 sec) 
Heartbeat CPU 0 instructions: 11000002 cycles: 5309599 heartbeat IPC: 2.09834 cumulative IPC: 2.08792 (Simulation time: 0 hr 0 min 32 sec) 
Finished CPU 0 instructions: 10000001 cycles: 4789460 cummulative IPC: 2.08792 (Simulation time: 0 hr 0 min 32 sec) 

ChampSim completed all CPUs

Region of Interest Statistics

CPU 0 cummulative IPC: 2.08792 instructions: 10000001 cycles: 4789460
LLC TOTAL     ACCESS:        437  HIT:          0  MISS:        437
LLC LOAD      ACCESS:        419  HIT:          0  MISS:        419
LLC RFO       ACCESS:         18  HIT:          0  MISS:         18
LLC PREFETCH  ACCESS:          0  HIT:          0  MISS:          0
LLC WRITEBACK ACCESS:          0  HIT:          0  MISS:          0

*** ChampSim Multicore Out-of-Order Simulator ***

Warmup Instructions: 1000000
Simulation Instructions: 10000000
Configuration: 1
Number of CPUs: 1
LLC sets: 2048
LLC ways: 16
Off-chip DRAM Channels: 1 Width: 64-bit Data Rate: 1600 MT/s

CPU 0 runs /datasets/cs240c-wi22-a00-public/data/Assignment2-gz/calculix_3812B.trace.gz
Heartbeat CPU 0 instructions: 1000001 cycles: 475279 heartbeat IPC: 2.10403 cumulative IPC: 2.10403 (Simulation time: 0 hr 0 min 4 sec) 

Warmup complete CPU 0 instructions: 1000001 cycles: 475279 (Simulation time: 0 hr 0 min 4 sec) 

Heartbeat CPU 0 instructions: 2000001 cycles: 1214236 heartbeat IPC: 1.35326 cumulative IPC: 1.35326 (Simulation time: 0 hr 0 min 8 sec) 
Heartbeat CPU 0 instructions: 3000002 cycles: 1907188 heartbeat IPC: 1.4431 cumulative IPC: 1.39674 (Simulation time: 0 hr 0 min 11 sec) 
Heartbeat CPU 0 instructions: 4000000 cycles: 2605245 heartbeat IPC: 1.43254 cumulative IPC: 1.40847 (Simulation time: 0 hr 0 min 14 sec) 
Heartbeat CPU 0 instructions: 5000000 cycles: 3847110 heartbeat IPC: 0.805241 cumulative IPC: 1.1863 (Simulation time: 0 hr 0 min 17 sec) 
Heartbeat CPU 0 instructions: 6000001 cycles: 4483211 heartbeat IPC: 1.57208 cumulative IPC: 1.24753 (Simulation time: 0 hr 0 min 20 sec) 
Heartbeat CPU 0 instructions: 7000000 cycles: 5041197 heartbeat IPC: 1.79216 cumulative IPC: 1.31408 (Simulation time: 0 hr 0 min 23 sec) 
Heartbeat CPU 0 instructions: 8000000 cycles: 5593827 heartbeat IPC: 1.80953 cumulative IPC: 1.36758 (Simulation time: 0 hr 0 min 25 sec) 
Heartbeat CPU 0 instructions: 9000000 cycles: 6157106 heartbeat IPC: 1.77532 cumulative IPC: 1.408 (Simulation time: 0 hr 0 min 28 sec) 
Heartbeat CPU 0 instructions: 10000001 cycles: 6717696 heartbeat IPC: 1.78384 cumulative IPC: 1.44175 (Simulation time: 0 hr 0 min 31 sec) 
Heartbeat CPU 0 instructions: 11000001 cycles: 7277983 heartbeat IPC: 1.7848 cumulative IPC: 1.47 (Simulation time: 0 hr 0 min 34 sec) 
Finished CPU 0 instructions: 10000000 cycles: 6802704 cummulative IPC: 1.47 (Simulation time: 0 hr 0 min 34 sec) 

ChampSim completed all CPUs

Region of Interest Statistics

CPU 0 cummulative IPC: 1.47 instructions: 10000000 cycles: 6802704
LLC TOTAL     ACCESS:     122143  HIT:     113213  MISS:       8930
LLC LOAD      ACCESS:      73911  HIT:      71025  MISS:       2886
LLC RFO       ACCESS:      16614  HIT:      10570  MISS:       6044
LLC PREFETCH  ACCESS:          0  HIT:          0  MISS:          0
LLC WRITEBACK ACCESS:      31618  HIT:      31618  MISS:          0

*** ChampSim Multicore Out-of-Order Simulator ***

Warmup Instructions: 1000000
Simulation Instructions: 10000000
Configuration: 1
Number of CPUs: 1
LLC sets: 2048
LLC ways: 16
Off-chip DRAM Channels: 1 Width: 64-bit Data Rate: 1600 MT/s

CPU 0 runs /datasets/cs240c-wi22-a00-public/data/Assignment2-gz/gcc_13B.trace.gz
Heartbeat CPU 0 instructions: 1000000 cycles: 644728 heartbeat IPC: 1.55104 cumulative IPC: 1.55104 (Simulation time: 0 hr 0 min 5 sec) 

Warmup complete CPU 0 instructions: 1000001 cycles: 644729 (Simulation time: 0 hr 0 min 5 sec) 

Heartbeat CPU 0 instructions: 2000001 cycles: 4921771 heartbeat IPC: 0.233807 cumulative IPC: 0.233806 (Simulation time: 0 hr 0 min 11 sec) 
Heartbeat CPU 0 instructions: 3000000 cycles: 9624870 heartbeat IPC: 0.212626 cumulative IPC: 0.222714 (Simulation time: 0 hr 0 min 17 sec) 
Heartbeat CPU 0 instructions: 4000000 cycles: 13985921 heartbeat IPC: 0.229303 cumulative IPC: 0.224867 (Simulation time: 0 hr 0 min 22 sec) 
Heartbeat CPU 0 instructions: 5000002 cycles: 18350969 heartbeat IPC: 0.229093 cumulative IPC: 0.225909 (Simulation time: 0 hr 0 min 27 sec) 
Heartbeat CPU 0 instructions: 6000003 cycles: 22716252 heartbeat IPC: 0.22908 cumulative IPC: 0.226536 (Simulation time: 0 hr 0 min 33 sec) 
Heartbeat CPU 0 instructions: 7000002 cycles: 27131739 heartbeat IPC: 0.226475 cumulative IPC: 0.226526 (Simulation time: 0 hr 0 min 38 sec) 
Heartbeat CPU 0 instructions: 8000000 cycles: 31742762 heartbeat IPC: 0.216871 cumulative IPC: 0.225095 (Simulation time: 0 hr 0 min 44 sec) 
Heartbeat CPU 0 instructions: 9000001 cycles: 36620032 heartbeat IPC: 0.205033 cumulative IPC: 0.222375 (Simulation time: 0 hr 0 min 49 sec) 
Heartbeat CPU 0 instructions: 10000002 cycles: 44072348 heartbeat IPC: 0.134187 cumulative IPC: 0.207241 (Simulation time: 0 hr 0 min 55 sec) 
Heartbeat CPU 0 instructions: 11000000 cycles: 51948208 heartbeat IPC: 0.12697 cumulative IPC: 0.194919 (Simulation time: 0 hr 1 min 0 sec) 
Finished CPU 0 instructions: 10000003 cycles: 51303591 cummulative IPC: 0.194918 (Simulation time: 0 hr 1 min 0 sec) 

ChampSim completed all CPUs

Region of Interest Statistics

CPU 0 cummulative IPC: 0.194918 instructions: 10000003 cycles: 51303591
LLC TOTAL     ACCESS:     705695  HIT:     106223  MISS:     599472
LLC LOAD      ACCESS:     289666  HIT:      21380  MISS:     268286
LLC RFO       ACCESS:     168909  HIT:       5967  MISS:     162942
LLC PREFETCH  ACCESS:          0  HIT:          0  MISS:          0
LLC WRITEBACK ACCESS:     247120  HIT:      78876  MISS:     168244

*** ChampSim Multicore Out-of-Order Simulator ***

Warmup Instructions: 1000000
Simulation Instructions: 10000000
Configuration: 1
Number of CPUs: 1
LLC sets: 2048
LLC ways: 16
Off-chip DRAM Channels: 1 Width: 64-bit Data Rate: 1600 MT/s

CPU 0 runs /datasets/cs240c-wi22-a00-public/data/Assignment2-gz/gcc_39B.trace.gz
Heartbeat CPU 0 instructions: 1000000 cycles: 510392 heartbeat IPC: 1.95928 cumulative IPC: 1.95928 (Simulation time: 0 hr 0 min 4 sec) 

Warmup complete CPU 0 instructions: 1000001 cycles: 510393 (Simulation time: 0 hr 0 min 4 sec) 

Heartbeat CPU 0 instructions: 2000002 cycles: 1904269 heartbeat IPC: 0.717425 cumulative IPC: 0.717425 (Simulation time: 0 hr 0 min 8 sec) 
Heartbeat CPU 0 instructions: 3000003 cycles: 3289660 heartbeat IPC: 0.721819 cumulative IPC: 0.719615 (Simulation time: 0 hr 0 min 12 sec) 
Heartbeat CPU 0 instructions: 4000000 cycles: 4657921 heartbeat IPC: 0.730853 cumulative IPC: 0.723322 (Simulation time: 0 hr 0 min 17 sec) 
Heartbeat CPU 0 instructions: 5000003 cycles: 6051661 heartbeat IPC: 0.717496 cumulative IPC: 0.721857 (Simulation time: 0 hr 0 min 21 sec) 
Heartbeat CPU 0 instructions: 6000000 cycles: 7417623 heartbeat IPC: 0.732083 cumulative IPC: 0.723879 (Simulation time: 0 hr 0 min 26 sec) 
Heartbeat CPU 0 instructions: 7000001 cycles: 8808857 heartbeat IPC: 0.718787 cumulative IPC: 0.723025 (Simulation time: 0 hr 0 min 31 sec) 
Heartbeat CPU 0 instructions: 8000000 cycles: 10191708 heartbeat IPC: 0.723143 cumulative IPC: 0.723042 (Simulation time: 0 hr 0 min 36 sec) 
Heartbeat CPU 0 instructions: 9000002 cycles: 11585606 heartbeat IPC: 0.717414 cumulative IPC: 0.722334 (Simulation time: 0 hr 0 min 41 sec) 
Heartbeat CPU 0 instructions: 10000000 cycles: 12969365 heartbeat IPC: 0.722668 cumulative IPC: 0.722371 (Simulation time: 0 hr 0 min 46 sec) 
Heartbeat CPU 0 instructions: 11000002 cycles: 14355530 heartbeat IPC: 0.721416 cumulative IPC: 0.722275 (Simulation time: 0 hr 0 min 50 sec) 
Finished CPU 0 instructions: 10000001 cycles: 13845137 cummulative IPC: 0.722275 (Simulation time: 0 hr 0 min 50 sec) 

ChampSim completed all CPUs

Region of Interest Statistics

CPU 0 cummulative IPC: 0.722275 instructions: 10000001 cycles: 13845137
LLC TOTAL     ACCESS:       2762  HIT:         64  MISS:       2698
LLC LOAD      ACCESS:       2331  HIT:          1  MISS:       2330
LLC RFO       ACCESS:        368  HIT:          0  MISS:        368
LLC PREFETCH  ACCESS:          0  HIT:          0  MISS:          0
LLC WRITEBACK ACCESS:         63  HIT:         63  MISS:          0

*** ChampSim Multicore Out-of-Order Simulator ***

Warmup Instructions: 1000000
Simulation Instructions: 10000000
Configuration: 1
Number of CPUs: 1
LLC sets: 2048
LLC ways: 16
Off-chip DRAM Channels: 1 Width: 64-bit Data Rate: 1600 MT/s

CPU 0 runs /datasets/cs240c-wi22-a00-public/data/Assignment2-gz/gcc_56B.trace.gz
Heartbeat CPU 0 instructions: 1000003 cycles: 954224 heartbeat IPC: 1.04798 cumulative IPC: 1.04798 (Simulation time: 0 hr 0 min 5 sec) 

Warmup complete CPU 0 instructions: 1000003 cycles: 954224 (Simulation time: 0 hr 0 min 5 sec) 

Heartbeat CPU 0 instructions: 2000001 cycles: 2322743 heartbeat IPC: 0.730715 cumulative IPC: 0.730715 (Simulation time: 0 hr 0 min 9 sec) 
Heartbeat CPU 0 instructions: 3000003 cycles: 3662686 heartbeat IPC: 0.746302 cumulative IPC: 0.738426 (Simulation time: 0 hr 0 min 14 sec) 
Heartbeat CPU 0 instructions: 4000000 cycles: 4983204 heartbeat IPC: 0.757276 cumulative IPC: 0.744605 (Simulation time: 0 hr 0 min 18 sec) 
Heartbeat CPU 0 instructions: 5000002 cycles: 6369379 heartbeat IPC: 0.721411 cumulative IPC: 0.738667 (Simulation time: 0 hr 0 min 22 sec) 
Heartbeat CPU 0 instructions: 6000000 cycles: 7758785 heartbeat IPC: 0.719731 cumulative IPC: 0.734801 (Simulation time: 0 hr 0 min 27 sec) 
Heartbeat CPU 0 instructions: 7000000 cycles: 9122705 heartbeat IPC: 0.733181 cumulative IPC: 0.73453 (Simulation time: 0 hr 0 min 31 sec) 
Heartbeat CPU 0 instructions: 8000000 cycles: 10491249 heartbeat IPC: 0.730704 cumulative IPC: 0.733981 (Simulation time: 0 hr 0 min 36 sec) 
Heartbeat CPU 0 instructions: 9000000 cycles: 11822087 heartbeat IPC: 0.751406 cumulative IPC: 0.736115 (Simulation time: 0 hr 0 min 40 sec) 
Heartbeat CPU 0 instructions: 10000002 cycles: 13160465 heartbeat IPC: 0.747175 cumulative IPC: 0.737328 (Simulation time: 0 hr 0 min 44 sec) 
Heartbeat CPU 0 instructions: 11000000 cycles: 14522233 heartbeat IPC: 0.734338 cumulative IPC: 0.737028 (Simulation time: 0 hr 0 min 48 sec) 
Finished CPU 0 instructions: 10000000 cycles: 13568028 cummulative IPC: 0.737027 (Simulation time: 0 hr 0 min 48 sec) 

ChampSim completed all CPUs

Region of Interest Statistics

CPU 0 cummulative IPC: 0.737027 instructions: 10000000 cycles: 13568028
LLC TOTAL     ACCESS:    2149062  HIT:    2143798  MISS:       5264
LLC LOAD      ACCESS:      19447  HIT:      15113  MISS:       4334
LLC RFO       ACCESS:    1061709  HIT:    1060779  MISS:        930
LLC PREFETCH  ACCESS:          0  HIT:          0  MISS:          0
LLC WRITEBACK ACCESS:    1067906  HIT:    1067906  MISS:          0

*** ChampSim Multicore Out-of-Order Simulator ***

Warmup Instructions: 1000000
Simulation Instructions: 10000000
Configuration: 1
Number of CPUs: 1
LLC sets: 2048
LLC ways: 16
Off-chip DRAM Channels: 1 Width: 64-bit Data Rate: 1600 MT/s

CPU 0 runs /datasets/cs240c-wi22-a00-public/data/Assignment2-gz/GemsFDTD_109B.trace.gz
Heartbeat CPU 0 instructions: 1000002 cycles: 577063 heartbeat IPC: 1.73292 cumulative IPC: 1.73292 (Simulation time: 0 hr 0 min 4 sec) 

Warmup complete CPU 0 instructions: 1000002 cycles: 577063 (Simulation time: 0 hr 0 min 4 sec) 

Heartbeat CPU 0 instructions: 2000003 cycles: 3142196 heartbeat IPC: 0.389844 cumulative IPC: 0.389844 (Simulation time: 0 hr 0 min 9 sec) 
Heartbeat CPU 0 instructions: 3000002 cycles: 5749935 heartbeat IPC: 0.383474 cumulative IPC: 0.386632 (Simulation time: 0 hr 0 min 15 sec) 
Heartbeat CPU 0 instructions: 4000000 cycles: 8321100 heartbeat IPC: 0.388928 cumulative IPC: 0.387395 (Simulation time: 0 hr 0 min 21 sec) 
Heartbeat CPU 0 instructions: 5000003 cycles: 10855262 heartbeat IPC: 0.394609 cumulative IPC: 0.389173 (Simulation time: 0 hr 0 min 26 sec) 
Heartbeat CPU 0 instructions: 6000000 cycles: 13489689 heartbeat IPC: 0.379588 cumulative IPC: 0.387218 (Simulation time: 0 hr 0 min 32 sec) 
Heartbeat CPU 0 instructions: 7000002 cycles: 16111024 heartbeat IPC: 0.381486 cumulative IPC: 0.38625 (Simulation time: 0 hr 0 min 37 sec) 
Heartbeat CPU 0 instructions: 8000000 cycles: 18793366 heartbeat IPC: 0.372808 cumulative IPC: 0.384271 (Simulation time: 0 hr 0 min 43 sec) 
Heartbeat CPU 0 instructions: 9000002 cycles: 21418265 heartbeat IPC: 0.380968 cumulative IPC: 0.383855 (Simulation time: 0 hr 0 min 49 sec) 
Heartbeat CPU 0 instructions: 10000002 cycles: 24057751 heartbeat IPC: 0.378862 cumulative IPC: 0.383294 (Simulation time: 0 hr 0 min 55 sec) 
Heartbeat CPU 0 instructions: 11000001 cycles: 26717097 heartbeat IPC: 0.376032 cumulative IPC: 0.382555 (Simulation time: 0 hr 1 min 1 sec) 
Finished CPU 0 instructions: 10000003 cycles: 26140035 cummulative IPC: 0.382555 (Simulation time: 0 hr 1 min 1 sec) 

ChampSim completed all CPUs

Region of Interest Statistics

CPU 0 cummulative IPC: 0.382555 instructions: 10000003 cycles: 26140035
LLC TOTAL     ACCESS:     385449  HIT:      25359  MISS:     360090
LLC LOAD      ACCESS:     250467  HIT:       6467  MISS:     244000
LLC RFO       ACCESS:          0  HIT:          0  MISS:          0
LLC PREFETCH  ACCESS:          0  HIT:          0  MISS:          0
LLC WRITEBACK ACCESS:     134982  HIT:      18892  MISS:     116090

*** ChampSim Multicore Out-of-Order Simulator ***

Warmup Instructions: 1000000
Simulation Instructions: 10000000
Configuration: 1
Number of CPUs: 1
LLC sets: 2048
LLC ways: 16
Off-chip DRAM Channels: 1 Width: 64-bit Data Rate: 1600 MT/s

CPU 0 runs /datasets/cs240c-wi22-a00-public/data/Assignment2-gz/GemsFDTD_712B.trace.gz
Heartbeat CPU 0 instructions: 1000003 cycles: 633083 heartbeat IPC: 1.57958 cumulative IPC: 1.57958 (Simulation time: 0 hr 0 min 4 sec) 

Warmup complete CPU 0 instructions: 1000003 cycles: 633083 (Simulation time: 0 hr 0 min 4 sec) 

Heartbeat CPU 0 instructions: 2000003 cycles: 4126856 heartbeat IPC: 0.286224 cumulative IPC: 0.286224 (Simulation time: 0 hr 0 min 9 sec) 
Heartbeat CPU 0 instructions: 3000000 cycles: 7591945 heartbeat IPC: 0.288592 cumulative IPC: 0.287403 (Simulation time: 0 hr 0 min 14 sec) 
Heartbeat CPU 0 instructions: 4000000 cycles: 10628650 heartbeat IPC: 0.329304 cumulative IPC: 0.300133 (Simulation time: 0 hr 0 min 19 sec) 
Heartbeat CPU 0 instructions: 5000000 cycles: 13808999 heartbeat IPC: 0.314431 cumulative IPC: 0.303584 (Simulation time: 0 hr 0 min 24 sec) 
Heartbeat CPU 0 instructions: 6000002 cycles: 17097392 heartbeat IPC: 0.304101 cumulative IPC: 0.303687 (Simulation time: 0 hr 0 min 29 sec) 
Heartbeat CPU 0 instructions: 7000000 cycles: 20407655 heartbeat IPC: 0.30209 cumulative IPC: 0.30342 (Simulation time: 0 hr 0 min 34 sec) 
Heartbeat CPU 0 instructions: 8000000 cycles: 23620666 heartbeat IPC: 0.311235 cumulative IPC: 0.304512 (Simulation time: 0 hr 0 min 39 sec) 
Heartbeat CPU 0 instructions: 9000002 cycles: 26784424 heartbeat IPC: 0.31608 cumulative IPC: 0.305912 (Simulation time: 0 hr 0 min 44 sec) 
Heartbeat CPU 0 instructions: 10000003 cycles: 30020771 heartbeat IPC: 0.308991 cumulative IPC: 0.306251 (Simulation time: 0 hr 0 min 49 sec) 
Heartbeat CPU 0 instructions: 11000001 cycles: 33337391 heartbeat IPC: 0.301511 cumulative IPC: 0.30577 (Simulation time: 0 hr 0 min 54 sec) 
Finished CPU 0 instructions: 10000002 cycles: 32704309 cummulative IPC: 0.30577 (Simulation time: 0 hr 0 min 54 sec) 

ChampSim completed all CPUs

Region of Interest Statistics

CPU 0 cummulative IPC: 0.30577 instructions: 10000002 cycles: 32704309
LLC TOTAL     ACCESS:     526821  HIT:      69309  MISS:     457512
LLC LOAD      ACCESS:     383181  HIT:      48999  MISS:     334182
LLC RFO       ACCESS:          0  HIT:          0  MISS:          0
LLC PREFETCH  ACCESS:          0  HIT:          0  MISS:          0
LLC WRITEBACK ACCESS:     143640  HIT:      20310  MISS:     123330

*** ChampSim Multicore Out-of-Order Simulator ***

Warmup Instructions: 1000000
Simulation Instructions: 10000000
Configuration: 1
Number of CPUs: 1
LLC sets: 2048
LLC ways: 16
Off-chip DRAM Channels: 1 Width: 64-bit Data Rate: 1600 MT/s

CPU 0 runs /datasets/cs240c-wi22-a00-public/data/Assignment2-gz/GemsFDTD_716B.trace.gz
Heartbeat CPU 0 instructions: 1000000 cycles: 415494 heartbeat IPC: 2.40677 cumulative IPC: 2.40677 (Simulation time: 0 hr 0 min 3 sec) 

Warmup complete CPU 0 instructions: 1000004 cycles: 415495 (Simulation time: 0 hr 0 min 3 sec) 

Heartbeat CPU 0 instructions: 2000003 cycles: 1869841 heartbeat IPC: 0.687596 cumulative IPC: 0.687594 (Simulation time: 0 hr 0 min 8 sec) 
Heartbeat CPU 0 instructions: 3000000 cycles: 3412826 heartbeat IPC: 0.648093 cumulative IPC: 0.667259 (Simulation time: 0 hr 0 min 12 sec) 
Heartbeat CPU 0 instructions: 4000000 cycles: 4665728 heartbeat IPC: 0.798147 cumulative IPC: 0.705843 (Simulation time: 0 hr 0 min 16 sec) 
Heartbeat CPU 0 instructions: 5000000 cycles: 6013763 heartbeat IPC: 0.741821 cumulative IPC: 0.714506 (Simulation time: 0 hr 0 min 21 sec) 
Heartbeat CPU 0 instructions: 6000000 cycles: 7361610 heartbeat IPC: 0.741924 cumulative IPC: 0.719826 (Simulation time: 0 hr 0 min 26 sec) 
Heartbeat CPU 0 instructions: 7000000 cycles: 8709520 heartbeat IPC: 0.741889 cumulative IPC: 0.723412 (Simulation time: 0 hr 0 min 30 sec) 
Heartbeat CPU 0 instructions: 8000000 cycles: 10120870 heartbeat IPC: 0.708541 cumulative IPC: 0.721249 (Simulation time: 0 hr 0 min 34 sec) 
Heartbeat CPU 0 instructions: 9000003 cycles: 13297927 heartbeat IPC: 0.314758 cumulative IPC: 0.621001 (Simulation time: 0 hr 0 min 39 sec) 
Heartbeat CPU 0 instructions: 10000001 cycles: 16794325 heartbeat IPC: 0.286008 cumulative IPC: 0.54949 (Simulation time: 0 hr 0 min 46 sec) 
Heartbeat CPU 0 instructions: 11000000 cycles: 20245087 heartbeat IPC: 0.289791 cumulative IPC: 0.504297 (Simulation time: 0 hr 0 min 52 sec) 
Finished CPU 0 instructions: 10000000 cycles: 19829593 cummulative IPC: 0.504297 (Simulation time: 0 hr 0 min 52 sec) 

ChampSim completed all CPUs

Region of Interest Statistics

CPU 0 cummulative IPC: 0.504297 instructions: 10000000 cycles: 19829593
LLC TOTAL     ACCESS:     216528  HIT:     103427  MISS:     113101
LLC LOAD      ACCESS:     143928  HIT:      44643  MISS:      99285
LLC RFO       ACCESS:      24678  HIT:      10962  MISS:      13716
LLC PREFETCH  ACCESS:          0  HIT:          0  MISS:          0
LLC WRITEBACK ACCESS:      47922  HIT:      47822  MISS:        100

*** ChampSim Multicore Out-of-Order Simulator ***

Warmup Instructions: 1000000
Simulation Instructions: 10000000
Configuration: 1
Number of CPUs: 1
LLC sets: 2048
LLC ways: 16
Off-chip DRAM Channels: 1 Width: 64-bit Data Rate: 1600 MT/s

CPU 0 runs /datasets/cs240c-wi22-a00-public/data/Assignment2-gz/lbm_1004B.trace.gz
Heartbeat CPU 0 instructions: 1000002 cycles: 391495 heartbeat IPC: 2.55432 cumulative IPC: 2.55432 (Simulation time: 0 hr 0 min 3 sec) 

Warmup complete CPU 0 instructions: 1000002 cycles: 391495 (Simulation time: 0 hr 0 min 3 sec) 

Heartbeat CPU 0 instructions: 2000000 cycles: 2105782 heartbeat IPC: 0.583332 cumulative IPC: 0.583332 (Simulation time: 0 hr 0 min 7 sec) 
Heartbeat CPU 0 instructions: 3000000 cycles: 3819436 heartbeat IPC: 0.583548 cumulative IPC: 0.58344 (Simulation time: 0 hr 0 min 12 sec) 
Heartbeat CPU 0 instructions: 4000000 cycles: 5620188 heartbeat IPC: 0.555324 cumulative IPC: 0.573757 (Simulation time: 0 hr 0 min 16 sec) 
Heartbeat CPU 0 instructions: 5000000 cycles: 7159248 heartbeat IPC: 0.649747 cumulative IPC: 0.591038 (Simulation time: 0 hr 0 min 20 sec) 
Heartbeat CPU 0 instructions: 6000002 cycles: 8676016 heartbeat IPC: 0.659298 cumulative IPC: 0.603535 (Simulation time: 0 hr 0 min 24 sec) 
Heartbeat CPU 0 instructions: 7000003 cycles: 10409080 heartbeat IPC: 0.577013 cumulative IPC: 0.598947 (Simulation time: 0 hr 0 min 28 sec) 
Heartbeat CPU 0 instructions: 8000000 cycles: 12055944 heartbeat IPC: 0.607213 cumulative IPC: 0.600114 (Simulation time: 0 hr 0 min 32 sec) 
Heartbeat CPU 0 instructions: 9000001 cycles: 13604036 heartbeat IPC: 0.645957 cumulative IPC: 0.605485 (Simulation time: 0 hr 0 min 36 sec) 
Heartbeat CPU 0 instructions: 10000000 cycles: 15263221 heartbeat IPC: 0.602705 cumulative IPC: 0.605175 (Simulation time: 0 hr 0 min 41 sec) 
Heartbeat CPU 0 instructions: 11000000 cycles: 16996011 heartbeat IPC: 0.577104 cumulative IPC: 0.602246 (Simulation time: 0 hr 0 min 45 sec) 
Finished CPU 0 instructions: 10000002 cycles: 16604517 cummulative IPC: 0.602246 (Simulation time: 0 hr 0 min 45 sec) 

ChampSim completed all CPUs

Region of Interest Statistics

CPU 0 cummulative IPC: 0.602246 instructions: 10000002 cycles: 16604517
LLC TOTAL     ACCESS:     530777  HIT:      92046  MISS:     438731
LLC LOAD      ACCESS:      74000  HIT:          6  MISS:      73994
LLC RFO       ACCESS:     228361  HIT:      30842  MISS:     197519
LLC PREFETCH  ACCESS:          0  HIT:          0  MISS:          0
LLC WRITEBACK ACCESS:     228416  HIT:      61198  MISS:     167218

*** ChampSim Multicore Out-of-Order Simulator ***

Warmup Instructions: 1000000
Simulation Instructions: 10000000
Configuration: 1
Number of CPUs: 1
LLC sets: 2048
LLC ways: 16
Off-chip DRAM Channels: 1 Width: 64-bit Data Rate: 1600 MT/s

CPU 0 runs /datasets/cs240c-wi22-a00-public/data/Assignment2-gz/lbm_564B.trace.gz
Heartbeat CPU 0 instructions: 1000000 cycles: 390238 heartbeat IPC: 2.56254 cumulative IPC: 2.56254 (Simulation time: 0 hr 0 min 4 sec) 

Warmup complete CPU 0 instructions: 1000004 cycles: 390239 (Simulation time: 0 hr 0 min 4 sec) 

Heartbeat CPU 0 instructions: 2000001 cycles: 2195451 heartbeat IPC: 0.553952 cumulative IPC: 0.55395 (Simulation time: 0 hr 0 min 8 sec) 
Heartbeat CPU 0 instructions: 3000002 cycles: 3936474 heartbeat IPC: 0.574376 cumulative IPC: 0.563978 (Simulation time: 0 hr 0 min 12 sec) 
Heartbeat CPU 0 instructions: 4000000 cycles: 5649403 heartbeat IPC: 0.583794 cumulative IPC: 0.570432 (Simulation time: 0 hr 0 min 17 sec) 
Heartbeat CPU 0 instructions: 5000002 cycles: 7238060 heartbeat IPC: 0.629464 cumulative IPC: 0.584127 (Simulation time: 0 hr 0 min 21 sec) 
Heartbeat CPU 0 instructions: 6000002 cycles: 8683376 heartbeat IPC: 0.69189 cumulative IPC: 0.602908 (Simulation time: 0 hr 0 min 25 sec) 
Heartbeat CPU 0 instructions: 7000000 cycles: 10389730 heartbeat IPC: 0.586044 cumulative IPC: 0.60003 (Simulation time: 0 hr 0 min 29 sec) 
Heartbeat CPU 0 instructions: 8000000 cycles: 12096822 heartbeat IPC: 0.585792 cumulative IPC: 0.597954 (Simulation time: 0 hr 0 min 33 sec) 
Heartbeat CPU 0 instructions: 9000000 cycles: 13621449 heartbeat IPC: 0.655898 cumulative IPC: 0.604631 (Simulation time: 0 hr 0 min 37 sec) 
Heartbeat CPU 0 instructions: 10000001 cycles: 15284125 heartbeat IPC: 0.601441 cumulative IPC: 0.604275 (Simulation time: 0 hr 0 min 42 sec) 
Heartbeat CPU 0 instructions: 11000000 cycles: 16992330 heartbeat IPC: 0.585409 cumulative IPC: 0.602334 (Simulation time: 0 hr 0 min 46 sec) 
Finished CPU 0 instructions: 10000000 cycles: 16602092 cummulative IPC: 0.602334 (Simulation time: 0 hr 0 min 46 sec) 

ChampSim completed all CPUs

Region of Interest Statistics

CPU 0 cummulative IPC: 0.602334 instructions: 10000000 cycles: 16602092
LLC TOTAL     ACCESS:     528395  HIT:      92952  MISS:     435443
LLC LOAD      ACCESS:      73999  HIT:          3  MISS:      73996
LLC RFO       ACCESS:     227242  HIT:      30907  MISS:     196335
LLC PREFETCH  ACCESS:          0  HIT:          0  MISS:          0
LLC WRITEBACK ACCESS:     227154  HIT:      62042  MISS:     165112

*** ChampSim Multicore Out-of-Order Simulator ***

Warmup Instructions: 1000000
Simulation Instructions: 10000000
Configuration: 1
Number of CPUs: 1
LLC sets: 2048
LLC ways: 16
Off-chip DRAM Channels: 1 Width: 64-bit Data Rate: 1600 MT/s

CPU 0 runs /datasets/cs240c-wi22-a00-public/data/Assignment2-gz/lbm_94B.trace.gz
Heartbeat CPU 0 instructions: 1000000 cycles: 422411 heartbeat IPC: 2.36736 cumulative IPC: 2.36736 (Simulation time: 0 hr 0 min 4 sec) 

Warmup complete CPU 0 instructions: 1000004 cycles: 422412 (Simulation time: 0 hr 0 min 4 sec) 

Heartbeat CPU 0 instructions: 2000000 cycles: 2164558 heartbeat IPC: 0.574004 cumulative IPC: 0.574002 (Simulation time: 0 hr 0 min 8 sec) 
Heartbeat CPU 0 instructions: 3000000 cycles: 3989530 heartbeat IPC: 0.547954 cumulative IPC: 0.560676 (Simulation time: 0 hr 0 min 13 sec) 
Heartbeat CPU 0 instructions: 4000000 cycles: 5928149 heartbeat IPC: 0.515831 cumulative IPC: 0.544885 (Simulation time: 0 hr 0 min 17 sec) 
Heartbeat CPU 0 instructions: 5000001 cycles: 7364961 heartbeat IPC: 0.695986 cumulative IPC: 0.576157 (Simulation time: 0 hr 0 min 21 sec) 
Heartbeat CPU 0 instructions: 6000000 cycles: 9154264 heartbeat IPC: 0.558876 cumulative IPC: 0.572616 (Simulation time: 0 hr 0 min 26 sec) 
Heartbeat CPU 0 instructions: 7000001 cycles: 11077762 heartbeat IPC: 0.519887 cumulative IPC: 0.563097 (Simulation time: 0 hr 0 min 30 sec) 
Heartbeat CPU 0 instructions: 8000000 cycles: 12637043 heartbeat IPC: 0.641321 cumulative IPC: 0.573083 (Simulation time: 0 hr 0 min 34 sec) 
Heartbeat CPU 0 instructions: 9000003 cycles: 14478916 heartbeat IPC: 0.542927 cumulative IPC: 0.569131 (Simulation time: 0 hr 0 min 39 sec) 
Heartbeat CPU 0 instructions: 10000000 cycles: 16462649 heartbeat IPC: 0.504099 cumulative IPC: 0.561089 (Simulation time: 0 hr 0 min 44 sec) 
Heartbeat CPU 0 instructions: 11000003 cycles: 18192638 heartbeat IPC: 0.57804 cumulative IPC: 0.562739 (Simulation time: 0 hr 0 min 48 sec) 
Finished CPU 0 instructions: 10000003 cycles: 17770227 cummulative IPC: 0.562739 (Simulation time: 0 hr 0 min 48 sec) 

ChampSim completed all CPUs

Region of Interest Statistics

CPU 0 cummulative IPC: 0.562739 instructions: 10000003 cycles: 17770227
LLC TOTAL     ACCESS:     591966  HIT:      85918  MISS:     506048
LLC LOAD      ACCESS:      82913  HIT:         17  MISS:      82896
LLC RFO       ACCESS:     254482  HIT:      31456  MISS:     223026
LLC PREFETCH  ACCESS:          0  HIT:          0  MISS:          0
LLC WRITEBACK ACCESS:     254571  HIT:      54445  MISS:     200126

*** ChampSim Multicore Out-of-Order Simulator ***

Warmup Instructions: 1000000
Simulation Instructions: 10000000
Configuration: 1
Number of CPUs: 1
LLC sets: 2048
LLC ways: 16
Off-chip DRAM Channels: 1 Width: 64-bit Data Rate: 1600 MT/s

CPU 0 runs /datasets/cs240c-wi22-a00-public/data/Assignment2-gz/leslie3d_1116B.trace.gz
Heartbeat CPU 0 instructions: 1000001 cycles: 532936 heartbeat IPC: 1.8764 cumulative IPC: 1.8764 (Simulation time: 0 hr 0 min 4 sec) 

Warmup complete CPU 0 instructions: 1000001 cycles: 532936 (Simulation time: 0 hr 0 min 4 sec) 

Heartbeat CPU 0 instructions: 2000003 cycles: 2176152 heartbeat IPC: 0.608564 cumulative IPC: 0.608564 (Simulation time: 0 hr 0 min 8 sec) 
Heartbeat CPU 0 instructions: 3000002 cycles: 3861601 heartbeat IPC: 0.593313 cumulative IPC: 0.600842 (Simulation time: 0 hr 0 min 13 sec) 
Heartbeat CPU 0 instructions: 4000000 cycles: 5514525 heartbeat IPC: 0.604987 cumulative IPC: 0.602217 (Simulation time: 0 hr 0 min 17 sec) 
Heartbeat CPU 0 instructions: 5000001 cycles: 7154713 heartbeat IPC: 0.609687 cumulative IPC: 0.604067 (Simulation time: 0 hr 0 min 22 sec) 
Heartbeat CPU 0 instructions: 6000001 cycles: 8825803 heartbeat IPC: 0.598412 cumulative IPC: 0.602928 (Simulation time: 0 hr 0 min 26 sec) 
Heartbeat CPU 0 instructions: 7000000 cycles: 10428538 heartbeat IPC: 0.623933 cumulative IPC: 0.60633 (Simulation time: 0 hr 0 min 30 sec) 
Heartbeat CPU 0 instructions: 8000000 cycles: 11883503 heartbeat IPC: 0.687302 cumulative IPC: 0.616709 (Simulation time: 0 hr 0 min 34 sec) 
Heartbeat CPU 0 instructions: 9000003 cycles: 13294571 heartbeat IPC: 0.708685 cumulative IPC: 0.626879 (Simulation time: 0 hr 0 min 38 sec) 
Heartbeat CPU 0 instructions: 10000000 cycles: 14768604 heartbeat IPC: 0.678409 cumulative IPC: 0.632215 (Simulation time: 0 hr 0 min 42 sec) 
Heartbeat CPU 0 instructions: 11000001 cycles: 16278299 heartbeat IPC: 0.662386 cumulative IPC: 0.635108 (Simulation time: 0 hr 0 min 46 sec) 
Finished CPU 0 instructions: 10000000 cycles: 15745363 cummulative IPC: 0.635108 (Simulation time: 0 hr 0 min 46 sec) 

ChampSim completed all CPUs

Region of Interest Statistics

CPU 0 cummulative IPC: 0.635108 instructions: 10000000 cycles: 15745363
LLC TOTAL     ACCESS:     189864  HIT:      32158  MISS:     157706
LLC LOAD      ACCESS:     137104  HIT:      22795  MISS:     114309
LLC RFO       ACCESS:      26205  HIT:         55  MISS:      26150
LLC PREFETCH  ACCESS:          0  HIT:          0  MISS:          0
LLC WRITEBACK ACCESS:      26555  HIT:       9308  MISS:      17247

*** ChampSim Multicore Out-of-Order Simulator ***

Warmup Instructions: 1000000
Simulation Instructions: 10000000
Configuration: 1
Number of CPUs: 1
LLC sets: 2048
LLC ways: 16
Off-chip DRAM Channels: 1 Width: 64-bit Data Rate: 1600 MT/s

CPU 0 runs /datasets/cs240c-wi22-a00-public/data/Assignment2-gz/leslie3d_1186B.trace.gz
Heartbeat CPU 0 instructions: 1000002 cycles: 557793 heartbeat IPC: 1.79278 cumulative IPC: 1.79278 (Simulation time: 0 hr 0 min 4 sec) 

Warmup complete CPU 0 instructions: 1000002 cycles: 557793 (Simulation time: 0 hr 0 min 4 sec) 

Heartbeat CPU 0 instructions: 2000000 cycles: 2580646 heartbeat IPC: 0.49435 cumulative IPC: 0.49435 (Simulation time: 0 hr 0 min 9 sec) 
Heartbeat CPU 0 instructions: 3000000 cycles: 4646906 heartbeat IPC: 0.483966 cumulative IPC: 0.489103 (Simulation time: 0 hr 0 min 15 sec) 
Heartbeat CPU 0 instructions: 4000000 cycles: 6666841 heartbeat IPC: 0.495065 cumulative IPC: 0.491075 (Simulation time: 0 hr 0 min 20 sec) 
Heartbeat CPU 0 instructions: 5000000 cycles: 8783304 heartbeat IPC: 0.472486 cumulative IPC: 0.486292 (Simulation time: 0 hr 0 min 25 sec) 
Heartbeat CPU 0 instructions: 6000000 cycles: 10729095 heartbeat IPC: 0.51393 cumulative IPC: 0.491579 (Simulation time: 0 hr 0 min 29 sec) 
Heartbeat CPU 0 instructions: 7000001 cycles: 12537667 heartbeat IPC: 0.552923 cumulative IPC: 0.50084 (Simulation time: 0 hr 0 min 34 sec) 
Heartbeat CPU 0 instructions: 8000000 cycles: 14480728 heartbeat IPC: 0.514651 cumulative IPC: 0.502767 (Simulation time: 0 hr 0 min 38 sec) 
Heartbeat CPU 0 instructions: 9000003 cycles: 16276477 heartbeat IPC: 0.556872 cumulative IPC: 0.508949 (Simulation time: 0 hr 0 min 43 sec) 
Heartbeat CPU 0 instructions: 10000001 cycles: 18019250 heartbeat IPC: 0.573797 cumulative IPC: 0.515421 (Simulation time: 0 hr 0 min 47 sec) 
Heartbeat CPU 0 instructions: 11000001 cycles: 19889996 heartbeat IPC: 0.534546 cumulative IPC: 0.517272 (Simulation time: 0 hr 0 min 51 sec) 
Finished CPU 0 instructions: 10000003 cycles: 19332204 cummulative IPC: 0.517272 (Simulation time: 0 hr 0 min 51 sec) 

ChampSim completed all CPUs

Region of Interest Statistics

CPU 0 cummulative IPC: 0.517272 instructions: 10000003 cycles: 19332204
LLC TOTAL     ACCESS:     282639  HIT:      93164  MISS:     189475
LLC LOAD      ACCESS:     201268  HIT:      44462  MISS:     156806
LLC RFO       ACCESS:      27094  HIT:      22233  MISS:       4861
LLC PREFETCH  ACCESS:          0  HIT:          0  MISS:          0
LLC WRITEBACK ACCESS:      54277  HIT:      26469  MISS:      27808

*** ChampSim Multicore Out-of-Order Simulator ***

Warmup Instructions: 1000000
Simulation Instructions: 10000000
Configuration: 1
Number of CPUs: 1
LLC sets: 2048
LLC ways: 16
Off-chip DRAM Channels: 1 Width: 64-bit Data Rate: 1600 MT/s

CPU 0 runs /datasets/cs240c-wi22-a00-public/data/Assignment2-gz/leslie3d_94B.trace.gz
Heartbeat CPU 0 instructions: 1000003 cycles: 592147 heartbeat IPC: 1.68877 cumulative IPC: 1.68877 (Simulation time: 0 hr 0 min 4 sec) 

Warmup complete CPU 0 instructions: 1000003 cycles: 592147 (Simulation time: 0 hr 0 min 4 sec) 

Heartbeat CPU 0 instructions: 2000002 cycles: 2650121 heartbeat IPC: 0.485914 cumulative IPC: 0.485914 (Simulation time: 0 hr 0 min 9 sec) 
Heartbeat CPU 0 instructions: 3000002 cycles: 4683092 heartbeat IPC: 0.491891 cumulative IPC: 0.488884 (Simulation time: 0 hr 0 min 14 sec) 
Heartbeat CPU 0 instructions: 4000000 cycles: 6635247 heartbeat IPC: 0.512253 cumulative IPC: 0.496433 (Simulation time: 0 hr 0 min 19 sec) 
Heartbeat CPU 0 instructions: 5000002 cycles: 8775621 heartbeat IPC: 0.467209 cumulative IPC: 0.48879 (Simulation time: 0 hr 0 min 23 sec) 
Heartbeat CPU 0 instructions: 6000000 cycles: 10716632 heartbeat IPC: 0.515194 cumulative IPC: 0.493852 (Simulation time: 0 hr 0 min 27 sec) 
Heartbeat CPU 0 instructions: 7000002 cycles: 12496584 heartbeat IPC: 0.561814 cumulative IPC: 0.504014 (Simulation time: 0 hr 0 min 32 sec) 
Heartbeat CPU 0 instructions: 8000000 cycles: 14444026 heartbeat IPC: 0.513493 cumulative IPC: 0.505346 (Simulation time: 0 hr 0 min 36 sec) 
Heartbeat CPU 0 instructions: 9000000 cycles: 16325663 heartbeat IPC: 0.531452 cumulative IPC: 0.508469 (Simulation time: 0 hr 0 min 40 sec) 
Heartbeat CPU 0 instructions: 10000001 cycles: 18142936 heartbeat IPC: 0.550276 cumulative IPC: 0.512797 (Simulation time: 0 hr 0 min 44 sec) 
Heartbeat CPU 0 instructions: 11000000 cycles: 19904751 heartbeat IPC: 0.567596 cumulative IPC: 0.517796 (Simulation time: 0 hr 0 min 48 sec) 
Finished CPU 0 instructions: 10000001 cycles: 19312615 cummulative IPC: 0.517796 (Simulation time: 0 hr 0 min 48 sec) 

ChampSim completed all CPUs

Region of Interest Statistics

CPU 0 cummulative IPC: 0.517796 instructions: 10000001 cycles: 19312615
LLC TOTAL     ACCESS:     279897  HIT:      97628  MISS:     182269
LLC LOAD      ACCESS:     198529  HIT:      41242  MISS:     157287
LLC RFO       ACCESS:      27915  HIT:      23910  MISS:       4005
LLC PREFETCH  ACCESS:          0  HIT:          0  MISS:          0
LLC WRITEBACK ACCESS:      53453  HIT:      32476  MISS:      20977

*** ChampSim Multicore Out-of-Order Simulator ***

Warmup Instructions: 1000000
Simulation Instructions: 10000000
Configuration: 1
Number of CPUs: 1
LLC sets: 2048
LLC ways: 16
Off-chip DRAM Channels: 1 Width: 64-bit Data Rate: 1600 MT/s

CPU 0 runs /datasets/cs240c-wi22-a00-public/data/Assignment2-gz/libquantum_1210B.trace.gz
Heartbeat CPU 0 instructions: 1000003 cycles: 314916 heartbeat IPC: 3.17546 cumulative IPC: 3.17546 (Simulation time: 0 hr 0 min 3 sec) 

Warmup complete CPU 0 instructions: 1000003 cycles: 314916 (Simulation time: 0 hr 0 min 3 sec) 

Heartbeat CPU 0 instructions: 2000000 cycles: 3442742 heartbeat IPC: 0.31971 cumulative IPC: 0.31971 (Simulation time: 0 hr 0 min 6 sec) 
Heartbeat CPU 0 instructions: 3000000 cycles: 6595678 heartbeat IPC: 0.317165 cumulative IPC: 0.318432 (Simulation time: 0 hr 0 min 9 sec) 
Heartbeat CPU 0 instructions: 4000000 cycles: 9845529 heartbeat IPC: 0.307706 cumulative IPC: 0.314775 (Simulation time: 0 hr 0 min 12 sec) 
Heartbeat CPU 0 instructions: 5000001 cycles: 12969926 heartbeat IPC: 0.320062 cumulative IPC: 0.31608 (Simulation time: 0 hr 0 min 16 sec) 
Heartbeat CPU 0 instructions: 6000001 cycles: 16194979 heartbeat IPC: 0.310072 cumulative IPC: 0.31486 (Simulation time: 0 hr 0 min 19 sec) 
Heartbeat CPU 0 instructions: 7000001 cycles: 19379291 heartbeat IPC: 0.31404 cumulative IPC: 0.314723 (Simulation time: 0 hr 0 min 23 sec) 
Heartbeat CPU 0 instructions: 8000000 cycles: 22578560 heartbeat IPC: 0.312571 cumulative IPC: 0.314414 (Simulation time: 0 hr 0 min 27 sec) 
Heartbeat CPU 0 instructions: 9000002 cycles: 25813004 heartbeat IPC: 0.309173 cumulative IPC: 0.313749 (Simulation time: 0 hr 0 min 32 sec) 
Heartbeat CPU 0 instructions: 10000003 cycles: 28947448 heartbeat IPC: 0.319036 cumulative IPC: 0.314328 (Simulation time: 0 hr 0 min 36 sec) 
Heartbeat CPU 0 instructions: 11000001 cycles: 32206015 heartbeat IPC: 0.306883 cumulative IPC: 0.313567 (Simulation time: 0 hr 0 min 41 sec) 
Finished CPU 0 instructions: 10000000 cycles: 31891101 cummulative IPC: 0.313567 (Simulation time: 0 hr 0 min 41 sec) 

ChampSim completed all CPUs

Region of Interest Statistics

CPU 0 cummulative IPC: 0.313567 instructions: 10000000 cycles: 31891101
LLC TOTAL     ACCESS:     390108  HIT:     127375  MISS:     262733
LLC LOAD      ACCESS:     262733  HIT:          0  MISS:     262733
LLC RFO       ACCESS:          0  HIT:          0  MISS:          0
LLC PREFETCH  ACCESS:          0  HIT:          0  MISS:          0
LLC WRITEBACK ACCESS:     127375  HIT:     127375  MISS:          0

*** ChampSim Multicore Out-of-Order Simulator ***

Warmup Instructions: 1000000
Simulation Instructions: 10000000
Configuration: 1
Number of CPUs: 1
LLC sets: 2048
LLC ways: 16
Off-chip DRAM Channels: 1 Width: 64-bit Data Rate: 1600 MT/s

CPU 0 runs /datasets/cs240c-wi22-a00-public/data/Assignment2-gz/libquantum_1735B.trace.gz
Heartbeat CPU 0 instructions: 1000003 cycles: 333345 heartbeat IPC: 2.9999 cumulative IPC: 2.9999 (Simulation time: 0 hr 0 min 3 sec) 

Warmup complete CPU 0 instructions: 1000003 cycles: 333345 (Simulation time: 0 hr 0 min 3 sec) 

Heartbeat CPU 0 instructions: 2000000 cycles: 2333707 heartbeat IPC: 0.499908 cumulative IPC: 0.499908 (Simulation time: 0 hr 0 min 7 sec) 
Heartbeat CPU 0 instructions: 3000002 cycles: 4686157 heartbeat IPC: 0.42509 cumulative IPC: 0.459473 (Simulation time: 0 hr 0 min 11 sec) 
Heartbeat CPU 0 instructions: 4000000 cycles: 7911721 heartbeat IPC: 0.310023 cumulative IPC: 0.395863 (Simulation time: 0 hr 0 min 15 sec) 
Heartbeat CPU 0 instructions: 5000003 cycles: 11161224 heartbeat IPC: 0.30774 cumulative IPC: 0.369417 (Simulation time: 0 hr 0 min 19 sec) 
Heartbeat CPU 0 instructions: 6000001 cycles: 14391732 heartbeat IPC: 0.309548 cumulative IPC: 0.355659 (Simulation time: 0 hr 0 min 23 sec) 
Heartbeat CPU 0 instructions: 7000002 cycles: 17610191 heartbeat IPC: 0.310708 cumulative IPC: 0.347286 (Simulation time: 0 hr 0 min 27 sec) 
Heartbeat CPU 0 instructions: 8000000 cycles: 20750927 heartbeat IPC: 0.318396 cumulative IPC: 0.342842 (Simulation time: 0 hr 0 min 31 sec) 
Heartbeat CPU 0 instructions: 9000000 cycles: 22756042 heartbeat IPC: 0.498725 cumulative IPC: 0.356781 (Simulation time: 0 hr 0 min 36 sec) 
Heartbeat CPU 0 instructions: 10000002 cycles: 24753984 heartbeat IPC: 0.500516 cumulative IPC: 0.368541 (Simulation time: 0 hr 0 min 40 sec) 
Heartbeat CPU 0 instructions: 11000001 cycles: 26752195 heartbeat IPC: 0.500447 cumulative IPC: 0.378518 (Simulation time: 0 hr 0 min 45 sec) 
Finished CPU 0 instructions: 10000002 cycles: 26418852 cummulative IPC: 0.378518 (Simulation time: 0 hr 0 min 45 sec) 

ChampSim completed all CPUs

Region of Interest Statistics

CPU 0 cummulative IPC: 0.378518 instructions: 10000002 cycles: 26418852
LLC TOTAL     ACCESS:     387654  HIT:        122  MISS:     387532
LLC LOAD      ACCESS:     264062  HIT:          0  MISS:     264062
LLC RFO       ACCESS:          4  HIT:          0  MISS:          4
LLC PREFETCH  ACCESS:          0  HIT:          0  MISS:          0
LLC WRITEBACK ACCESS:     123588  HIT:        122  MISS:     123466

*** ChampSim Multicore Out-of-Order Simulator ***

Warmup Instructions: 1000000
Simulation Instructions: 10000000
Configuration: 1
Number of CPUs: 1
LLC sets: 2048
LLC ways: 16
Off-chip DRAM Channels: 1 Width: 64-bit Data Rate: 1600 MT/s

CPU 0 runs /datasets/cs240c-wi22-a00-public/data/Assignment2-gz/libquantum_964B.trace.gz
Heartbeat CPU 0 instructions: 1000001 cycles: 333344 heartbeat IPC: 2.99991 cumulative IPC: 2.99991 (Simulation time: 0 hr 0 min 3 sec) 

Warmup complete CPU 0 instructions: 1000001 cycles: 333344 (Simulation time: 0 hr 0 min 3 sec) 

Heartbeat CPU 0 instructions: 2000001 cycles: 2331103 heartbeat IPC: 0.500561 cumulative IPC: 0.500561 (Simulation time: 0 hr 0 min 7 sec) 
Heartbeat CPU 0 instructions: 3000000 cycles: 4328403 heartbeat IPC: 0.500675 cumulative IPC: 0.500618 (Simulation time: 0 hr 0 min 12 sec) 
Heartbeat CPU 0 instructions: 4000000 cycles: 6325796 heartbeat IPC: 0.500653 cumulative IPC: 0.50063 (Simulation time: 0 hr 0 min 16 sec) 
Heartbeat CPU 0 instructions: 5000000 cycles: 8323233 heartbeat IPC: 0.500642 cumulative IPC: 0.500633 (Simulation time: 0 hr 0 min 21 sec) 
Heartbeat CPU 0 instructions: 6000002 cycles: 10320629 heartbeat IPC: 0.500653 cumulative IPC: 0.500637 (Simulation time: 0 hr 0 min 26 sec) 
Heartbeat CPU 0 instructions: 7000001 cycles: 12504977 heartbeat IPC: 0.457802 cumulative IPC: 0.492949 (Simulation time: 0 hr 0 min 31 sec) 
Heartbeat CPU 0 instructions: 8000000 cycles: 14793745 heartbeat IPC: 0.436916 cumulative IPC: 0.484081 (Simulation time: 0 hr 0 min 35 sec) 
Heartbeat CPU 0 instructions: 9000001 cycles: 17092378 heartbeat IPC: 0.435042 cumulative IPC: 0.477354 (Simulation time: 0 hr 0 min 39 sec) 
Heartbeat CPU 0 instructions: 10000000 cycles: 19388769 heartbeat IPC: 0.435465 cumulative IPC: 0.472306 (Simulation time: 0 hr 0 min 44 sec) 
Heartbeat CPU 0 instructions: 11000000 cycles: 21692305 heartbeat IPC: 0.434115 cumulative IPC: 0.468188 (Simulation time: 0 hr 0 min 48 sec) 
Finished CPU 0 instructions: 10000001 cycles: 21358962 cummulative IPC: 0.468188 (Simulation time: 0 hr 0 min 48 sec) 

ChampSim completed all CPUs

Region of Interest Statistics

CPU 0 cummulative IPC: 0.468188 instructions: 10000001 cycles: 21358962
LLC TOTAL     ACCESS:     294667  HIT:         53  MISS:     294614
LLC LOAD      ACCESS:     276773  HIT:          0  MISS:     276773
LLC RFO       ACCESS:          4  HIT:          0  MISS:          4
LLC PREFETCH  ACCESS:          0  HIT:          0  MISS:          0
LLC WRITEBACK ACCESS:      17890  HIT:         53  MISS:      17837

*** ChampSim Multicore Out-of-Order Simulator ***

Warmup Instructions: 1000000
Simulation Instructions: 10000000
Configuration: 1
Number of CPUs: 1
LLC sets: 2048
LLC ways: 16
Off-chip DRAM Channels: 1 Width: 64-bit Data Rate: 1600 MT/s

CPU 0 runs /datasets/cs240c-wi22-a00-public/data/Assignment2-gz/mcf_158B.trace.gz
Heartbeat CPU 0 instructions: 1000002 cycles: 496507 heartbeat IPC: 2.01407 cumulative IPC: 2.01407 (Simulation time: 0 hr 0 min 5 sec) 

Warmup complete CPU 0 instructions: 1000002 cycles: 496507 (Simulation time: 0 hr 0 min 5 sec) 

Heartbeat CPU 0 instructions: 2000002 cycles: 13759385 heartbeat IPC: 0.0753984 cumulative IPC: 0.0753984 (Simulation time: 0 hr 0 min 13 sec) 
Heartbeat CPU 0 instructions: 3000000 cycles: 27299877 heartbeat IPC: 0.0738524 cumulative IPC: 0.0746174 (Simulation time: 0 hr 0 min 20 sec) 
Heartbeat CPU 0 instructions: 4000000 cycles: 40489875 heartbeat IPC: 0.075815 cumulative IPC: 0.0750124 (Simulation time: 0 hr 0 min 28 sec) 
Heartbeat CPU 0 instructions: 5000002 cycles: 52098310 heartbeat IPC: 0.0861444 cumulative IPC: 0.0775167 (Simulation time: 0 hr 0 min 35 sec) 
Heartbeat CPU 0 instructions: 6000001 cycles: 64147418 heartbeat IPC: 0.0829936 cumulative IPC: 0.0785535 (Simulation time: 0 hr 0 min 43 sec) 
Heartbeat CPU 0 instructions: 7000000 cycles: 76231381 heartbeat IPC: 0.0827542 cumulative IPC: 0.0792237 (Simulation time: 0 hr 0 min 50 sec) 
Heartbeat CPU 0 instructions: 8000000 cycles: 88429944 heartbeat IPC: 0.0819769 cumulative IPC: 0.0796056 (Simulation time: 0 hr 0 min 58 sec) 
Heartbeat CPU 0 instructions: 9000000 cycles: 101959346 heartbeat IPC: 0.0739131 cumulative IPC: 0.0788466 (Simulation time: 0 hr 1 min 6 sec) 
Heartbeat CPU 0 instructions: 10000001 cycles: 118194130 heartbeat IPC: 0.0615962 cumulative IPC: 0.0764671 (Simulation time: 0 hr 1 min 16 sec) 
Heartbeat CPU 0 instructions: 11000000 cycles: 131113653 heartbeat IPC: 0.0774022 cumulative IPC: 0.0765596 (Simulation time: 0 hr 1 min 24 sec) 
Finished CPU 0 instructions: 10000002 cycles: 130617150 cummulative IPC: 0.0765596 (Simulation time: 0 hr 1 min 24 sec) 

ChampSim completed all CPUs

Region of Interest Statistics

CPU 0 cummulative IPC: 0.0765596 instructions: 10000002 cycles: 130617150
LLC TOTAL     ACCESS:    1469237  HIT:     760227  MISS:     709010
LLC LOAD      ACCESS:    1388120  HIT:     707992  MISS:     680128
LLC RFO       ACCESS:       6449  HIT:       2877  MISS:       3572
LLC PREFETCH  ACCESS:          0  HIT:          0  MISS:          0
LLC WRITEBACK ACCESS:      74668  HIT:      49358  MISS:      25310

*** ChampSim Multicore Out-of-Order Simulator ***

Warmup Instructions: 1000000
Simulation Instructions: 10000000
Configuration: 1
Number of CPUs: 1
LLC sets: 2048
LLC ways: 16
Off-chip DRAM Channels: 1 Width: 64-bit Data Rate: 1600 MT/s

CPU 0 runs /datasets/cs240c-wi22-a00-public/data/Assignment2-gz/mcf_250B.trace.gz
Heartbeat CPU 0 instructions: 1000000 cycles: 527308 heartbeat IPC: 1.89642 cumulative IPC: 1.89642 (Simulation time: 0 hr 0 min 5 sec) 

Warmup complete CPU 0 instructions: 1000004 cycles: 527309 (Simulation time: 0 hr 0 min 5 sec) 

Heartbeat CPU 0 instructions: 2000002 cycles: 14542749 heartbeat IPC: 0.07135 cumulative IPC: 0.0713497 (Simulation time: 0 hr 0 min 14 sec) 
Heartbeat CPU 0 instructions: 3000002 cycles: 24587613 heartbeat IPC: 0.0995534 cumulative IPC: 0.0831244 (Simulation time: 0 hr 0 min 20 sec) 
Heartbeat CPU 0 instructions: 4000000 cycles: 36804497 heartbeat IPC: 0.0818538 cumulative IPC: 0.0826965 (Simulation time: 0 hr 0 min 28 sec) 
Heartbeat CPU 0 instructions: 5000001 cycles: 47815364 heartbeat IPC: 0.0908195 cumulative IPC: 0.0845879 (Simulation time: 0 hr 0 min 35 sec) 
Heartbeat CPU 0 instructions: 6000000 cycles: 58905784 heartbeat IPC: 0.0901678 cumulative IPC: 0.0856479 (Simulation time: 0 hr 0 min 42 sec) 
Heartbeat CPU 0 instructions: 7000002 cycles: 72283145 heartbeat IPC: 0.0747533 cumulative IPC: 0.0836169 (Simulation time: 0 hr 0 min 51 sec) 
Heartbeat CPU 0 instructions: 8000000 cycles: 84968328 heartbeat IPC: 0.078832 cumulative IPC: 0.0828981 (Simulation time: 0 hr 0 min 59 sec) 
Heartbeat CPU 0 instructions: 9000000 cycles: 97455466 heartbeat IPC: 0.0800824 cumulative IPC: 0.0825353 (Simulation time: 0 hr 1 min 6 sec) 
Heartbeat CPU 0 instructions: 10000000 cycles: 109466731 heartbeat IPC: 0.0832552 cumulative IPC: 0.0826147 (Simulation time: 0 hr 1 min 14 sec) 
Heartbeat CPU 0 instructions: 11000001 cycles: 121601762 heartbeat IPC: 0.0824061 cumulative IPC: 0.0825938 (Simulation time: 0 hr 1 min 22 sec) 
Finished CPU 0 instructions: 10000000 cycles: 121074455 cummulative IPC: 0.0825938 (Simulation time: 0 hr 1 min 22 sec) 

ChampSim completed all CPUs

Region of Interest Statistics

CPU 0 cummulative IPC: 0.0825938 instructions: 10000000 cycles: 121074455
LLC TOTAL     ACCESS:    1427518  HIT:     742191  MISS:     685327
LLC LOAD      ACCESS:    1374748  HIT:     714896  MISS:     659852
LLC RFO       ACCESS:       2527  HIT:       1220  MISS:       1307
LLC PREFETCH  ACCESS:          0  HIT:          0  MISS:          0
LLC WRITEBACK ACCESS:      50243  HIT:      26075  MISS:      24168

*** ChampSim Multicore Out-of-Order Simulator ***

Warmup Instructions: 1000000
Simulation Instructions: 10000000
Configuration: 1
Number of CPUs: 1
LLC sets: 2048
LLC ways: 16
Off-chip DRAM Channels: 1 Width: 64-bit Data Rate: 1600 MT/s

CPU 0 runs /datasets/cs240c-wi22-a00-public/data/Assignment2-gz/mcf_46B.trace.gz
Heartbeat CPU 0 instructions: 1000002 cycles: 482155 heartbeat IPC: 2.07403 cumulative IPC: 2.07403 (Simulation time: 0 hr 0 min 5 sec) 

Warmup complete CPU 0 instructions: 1000002 cycles: 482155 (Simulation time: 0 hr 0 min 5 sec) 

Heartbeat CPU 0 instructions: 2000002 cycles: 5982999 heartbeat IPC: 0.18179 cumulative IPC: 0.18179 (Simulation time: 0 hr 0 min 10 sec) 
Heartbeat CPU 0 instructions: 3000000 cycles: 18292227 heartbeat IPC: 0.0812397 cumulative IPC: 0.112296 (Simulation time: 0 hr 0 min 19 sec) 
Heartbeat CPU 0 instructions: 4000000 cycles: 28820945 heartbeat IPC: 0.0949783 cumulative IPC: 0.105862 (Simulation time: 0 hr 0 min 27 sec) 
Heartbeat CPU 0 instructions: 5000001 cycles: 33763767 heartbeat IPC: 0.202314 cumulative IPC: 0.120186 (Simulation time: 0 hr 0 min 33 sec) 
Heartbeat CPU 0 instructions: 6000003 cycles: 40767478 heartbeat IPC: 0.142782 cumulative IPC: 0.124115 (Simulation time: 0 hr 0 min 40 sec) 
Heartbeat CPU 0 instructions: 7000000 cycles: 55301735 heartbeat IPC: 0.0688028 cumulative IPC: 0.10945 (Simulation time: 0 hr 0 min 48 sec) 
Heartbeat CPU 0 instructions: 8000000 cycles: 60360025 heartbeat IPC: 0.197695 cumulative IPC: 0.116905 (Simulation time: 0 hr 0 min 54 sec) 
Heartbeat CPU 0 instructions: 9000001 cycles: 65097518 heartbeat IPC: 0.211082 cumulative IPC: 0.12381 (Simulation time: 0 hr 1 min 0 sec) 
Heartbeat CPU 0 instructions: 10000001 cycles: 78580653 heartbeat IPC: 0.0741667 cumulative IPC: 0.115239 (Simulation time: 0 hr 1 min 8 sec) 
Heartbeat CPU 0 instructions: 11000002 cycles: 90128856 heartbeat IPC: 0.0865936 cumulative IPC: 0.111549 (Simulation time: 0 hr 1 min 17 sec) 
Finished CPU 0 instructions: 10000000 cycles: 89646701 cummulative IPC: 0.111549 (Simulation time: 0 hr 1 min 17 sec) 

ChampSim completed all CPUs

Region of Interest Statistics

CPU 0 cummulative IPC: 0.111549 instructions: 10000000 cycles: 89646701
LLC TOTAL     ACCESS:    1127564  HIT:     483457  MISS:     644107
LLC LOAD      ACCESS:     893206  HIT:     345137  MISS:     548069
LLC RFO       ACCESS:      19578  HIT:      12277  MISS:       7301
LLC PREFETCH  ACCESS:          0  HIT:          0  MISS:          0
LLC WRITEBACK ACCESS:     214780  HIT:     126043  MISS:      88737

*** ChampSim Multicore Out-of-Order Simulator ***

Warmup Instructions: 1000000
Simulation Instructions: 10000000
Configuration: 1
Number of CPUs: 1
LLC sets: 2048
LLC ways: 16
Off-chip DRAM Channels: 1 Width: 64-bit Data Rate: 1600 MT/s

CPU 0 runs /datasets/cs240c-wi22-a00-public/data/Assignment2-gz/milc_360B.trace.gz
Heartbeat CPU 0 instructions: 1000001 cycles: 549889 heartbeat IPC: 1.81855 cumulative IPC: 1.81855 (Simulation time: 0 hr 0 min 5 sec) 

Warmup complete CPU 0 instructions: 1000001 cycles: 549889 (Simulation time: 0 hr 0 min 5 sec) 

Heartbeat CPU 0 instructions: 2000003 cycles: 2534869 heartbeat IPC: 0.503784 cumulative IPC: 0.503784 (Simulation time: 0 hr 0 min 10 sec) 
Heartbeat CPU 0 instructions: 3000001 cycles: 4485301 heartbeat IPC: 0.512706 cumulative IPC: 0.508206 (Simulation time: 0 hr 0 min 15 sec) 
Heartbeat CPU 0 instructions: 4000000 cycles: 6456080 heartbeat IPC: 0.507413 cumulative IPC: 0.507941 (Simulation time: 0 hr 0 min 20 sec) 
Heartbeat CPU 0 instructions: 5000002 cycles: 8425386 heartbeat IPC: 0.507794 cumulative IPC: 0.507905 (Simulation time: 0 hr 0 min 25 sec) 
Heartbeat CPU 0 instructions: 6000001 cycles: 10370848 heartbeat IPC: 0.514016 cumulative IPC: 0.509115 (Simulation time: 0 hr 0 min 30 sec) 
Heartbeat CPU 0 instructions: 7000000 cycles: 12311377 heartbeat IPC: 0.515323 cumulative IPC: 0.510139 (Simulation time: 0 hr 0 min 35 sec) 
Heartbeat CPU 0 instructions: 8000000 cycles: 14256693 heartbeat IPC: 0.514055 cumulative IPC: 0.510695 (Simulation time: 0 hr 0 min 40 sec) 
Heartbeat CPU 0 instructions: 9000001 cycles: 16220006 heartbeat IPC: 0.509344 cumulative IPC: 0.510526 (Simulation time: 0 hr 0 min 45 sec) 
Heartbeat CPU 0 instructions: 10000003 cycles: 18189737 heartbeat IPC: 0.507685 cumulative IPC: 0.510209 (Simulation time: 0 hr 0 min 51 sec) 
Heartbeat CPU 0 instructions: 11000001 cycles: 20140449 heartbeat IPC: 0.512632 cumulative IPC: 0.51045 (Simulation time: 0 hr 0 min 56 sec) 
Finished CPU 0 instructions: 10000000 cycles: 19590560 cummulative IPC: 0.51045 (Simulation time: 0 hr 0 min 56 sec) 

ChampSim completed all CPUs

Region of Interest Statistics

CPU 0 cummulative IPC: 0.51045 instructions: 10000000 cycles: 19590560
LLC TOTAL     ACCESS:     224140  HIT:      68968  MISS:     155172
LLC LOAD      ACCESS:     155172  HIT:          0  MISS:     155172
LLC RFO       ACCESS:          0  HIT:          0  MISS:          0
LLC PREFETCH  ACCESS:          0  HIT:          0  MISS:          0
LLC WRITEBACK ACCESS:      68968  HIT:      68968  MISS:          0

*** ChampSim Multicore Out-of-Order Simulator ***

Warmup Instructions: 1000000
Simulation Instructions: 10000000
Configuration: 1
Number of CPUs: 1
LLC sets: 2048
LLC ways: 16
Off-chip DRAM Channels: 1 Width: 64-bit Data Rate: 1600 MT/s

CPU 0 runs /datasets/cs240c-wi22-a00-public/data/Assignment2-gz/milc_409B.trace.gz
Heartbeat CPU 0 instructions: 1000000 cycles: 402731 heartbeat IPC: 2.48305 cumulative IPC: 2.48305 (Simulation time: 0 hr 0 min 4 sec) 

[...]

Warmup complete CPU 0 instructions: 1000003 cycles: 338265 (Simulation time: 0 hr 0 min 4 sec) 

Heartbeat CPU 0 instructions: 2000000 cycles: 2897549 heartbeat IPC: 0.390733 cumulative IPC: 0.390733 (Simulation time: 0 hr 0 min 9 sec) 
Heartbeat CPU 0 instructions: 3000003 cycles: 4428133 heartbeat IPC: 0.653347 cumulative IPC: 0.489013 (Simulation time: 0 hr 0 min 13 sec) 
Heartbeat CPU 0 instructions: 4000000 cycles: 6057396 heartbeat IPC: 0.613773 cumulative IPC: 0.524555 (Simulation time: 0 hr 0 min 18 sec) 
Heartbeat CPU 0 instructions: 5000002 cycles: 8225264 heartbeat IPC: 0.461284 cumulative IPC: 0.507164 (Simulation time: 0 hr 0 min 23 sec) 
Heartbeat CPU 0 instructions: 6000002 cycles: 9863571 heartbeat IPC: 0.610386 cumulative IPC: 0.524917 (Simulation time: 0 hr 0 min 27 sec) 
Heartbeat CPU 0 instructions: 7000000 cycles: 11479630 heartbeat IPC: 0.618788 cumulative IPC: 0.538533 (Simulation time: 0 hr 0 min 32 sec) 
Heartbeat CPU 0 instructions: 8000000 cycles: 13163691 heartbeat IPC: 0.593803 cumulative IPC: 0.545791 (Simulation time: 0 hr 0 min 36 sec) 
Heartbeat CPU 0 instructions: 9000001 cycles: 14683333 heartbeat IPC: 0.65805 cumulative IPC: 0.557683 (Simulation time: 0 hr 0 min 41 sec) 
Heartbeat CPU 0 instructions: 10000003 cycles: 16184222 heartbeat IPC: 0.666273 cumulative IPC: 0.567968 (Simulation time: 0 hr 0 min 45 sec) 
Heartbeat CPU 0 instructions: 11000000 cycles: 17703057 heartbeat IPC: 0.658397 cumulative IPC: 0.575878 (Simulation time: 0 hr 0 min 50 sec) 
Finished CPU 0 instructions: 10000001 cycles: 17364793 cummulative IPC: 0.575878 (Simulation time: 0 hr 0 min 50 sec) 

ChampSim completed all CPUs

Region of Interest Statistics

CPU 0 cummulative IPC: 0.575878 instructions: 10000001 cycles: 17364793
LLC TOTAL     ACCESS:     152838  HIT:      40171  MISS:     112667
LLC LOAD      ACCESS:     127391  HIT:      20320  MISS:     107071
LLC RFO       ACCESS:      11896  HIT:       6300  MISS:       5596
LLC PREFETCH  ACCESS:          0  HIT:          0  MISS:          0
LLC WRITEBACK ACCESS:      13551  HIT:      13551  MISS:          0

*** ChampSim Multicore Out-of-Order Simulator ***

Warmup Instructions: 1000000
Simulation Instructions: 10000000
Configuration: 1
Number of CPUs: 1
LLC sets: 2048
LLC ways: 16
Off-chip DRAM Channels: 1 Width: 64-bit Data Rate: 1600 MT/s

CPU 0 runs /datasets/cs240c-wi22-a00-public/data/Assignment2-gz/sphinx3_883B.trace.gz
Heartbeat CPU 0 instructions: 1000003 cycles: 413061 heartbeat IPC: 2.42096 cumulative IPC: 2.42096 (Simulation time: 0 hr 0 min 4 sec) 

Warmup complete CPU 0 instructions: 1000003 cycles: 413061 (Simulation time: 0 hr 0 min 4 sec) 

Heartbeat CPU 0 instructions: 2000002 cycles: 2975351 heartbeat IPC: 0.390276 cumulative IPC: 0.390276 (Simulation time: 0 hr 0 min 8 sec) 
Heartbeat CPU 0 instructions: 3000001 cycles: 4965470 heartbeat IPC: 0.502482 cumulative IPC: 0.439327 (Simulation time: 0 hr 0 min 13 sec) 
Heartbeat CPU 0 instructions: 4000000 cycles: 6663928 heartbeat IPC: 0.588769 cumulative IPC: 0.479933 (Simulation time: 0 hr 0 min 17 sec) 
Heartbeat CPU 0 instructions: 5000000 cycles: 8554897 heartbeat IPC: 0.528829 cumulative IPC: 0.491289 (Simulation time: 0 hr 0 min 22 sec) 
Heartbeat CPU 0 instructions: 6000000 cycles: 11145338 heartbeat IPC: 0.386035 cumulative IPC: 0.465884 (Simulation time: 0 hr 0 min 27 sec) 
Heartbeat CPU 0 instructions: 7000000 cycles: 13588529 heartbeat IPC: 0.409301 cumulative IPC: 0.455392 (Simulation time: 0 hr 0 min 32 sec) 
Heartbeat CPU 0 instructions: 8000000 cycles: 15227210 heartbeat IPC: 0.610247 cumulative IPC: 0.472521 (Simulation time: 0 hr 0 min 36 sec) 
Heartbeat CPU 0 instructions: 9000000 cycles: 16318802 heartbeat IPC: 0.916093 cumulative IPC: 0.502963 (Simulation time: 0 hr 0 min 40 sec) 
Heartbeat CPU 0 instructions: 10000000 cycles: 17497121 heartbeat IPC: 0.848667 cumulative IPC: 0.526807 (Simulation time: 0 hr 0 min 44 sec) 
Heartbeat CPU 0 instructions: 11000002 cycles: 19983672 heartbeat IPC: 0.402164 cumulative IPC: 0.51097 (Simulation time: 0 hr 0 min 49 sec) 
Finished CPU 0 instructions: 10000003 cycles: 19570612 cummulative IPC: 0.51097 (Simulation time: 0 hr 0 min 49 sec) 

ChampSim completed all CPUs

Region of Interest Statistics

CPU 0 cummulative IPC: 0.51097 instructions: 10000003 cycles: 19570612
LLC TOTAL     ACCESS:     165588  HIT:      55026  MISS:     110562
LLC LOAD      ACCESS:     144386  HIT:      39418  MISS:     104968
LLC RFO       ACCESS:       8238  HIT:       4178  MISS:       4060
LLC PREFETCH  ACCESS:          0  HIT:          0  MISS:          0
LLC WRITEBACK ACCESS:      12964  HIT:      11430  MISS:       1534

*** ChampSim Multicore Out-of-Order Simulator ***

Warmup Instructions: 1000000
Simulation Instructions: 10000000
Configuration: 1
Number of CPUs: 1
LLC sets: 2048
LLC ways: 16
Off-chip DRAM Channels: 1 Width: 64-bit Data Rate: 1600 MT/s

CPU 0 runs /datasets/cs240c-wi22-a00-public/data/Assignment2-gz/wrf_1212B.trace.gz
Heartbeat CPU 0 instructions: 1000001 cycles: 599253 heartbeat IPC: 1.66875 cumulative IPC: 1.66875 (Simulation time: 0 hr 0 min 4 sec) 

Warmup complete CPU 0 instructions: 1000001 cycles: 599253 (Simulation time: 0 hr 0 min 4 sec) 

Heartbeat CPU 0 instructions: 2000000 cycles: 2423302 heartbeat IPC: 0.54823 cumulative IPC: 0.54823 (Simulation time: 0 hr 0 min 10 sec) 
Heartbeat CPU 0 instructions: 3000001 cycles: 4219232 heartbeat IPC: 0.556815 cumulative IPC: 0.552489 (Simulation time: 0 hr 0 min 15 sec) 
Heartbeat CPU 0 instructions: 4000000 cycles: 6048098 heartbeat IPC: 0.546786 cumulative IPC: 0.550575 (Simulation time: 0 hr 0 min 21 sec) 
Heartbeat CPU 0 instructions: 5000000 cycles: 7875765 heartbeat IPC: 0.547146 cumulative IPC: 0.549714 (Simulation time: 0 hr 0 min 26 sec) 
Heartbeat CPU 0 instructions: 6000001 cycles: 9692657 heartbeat IPC: 0.550391 cumulative IPC: 0.549849 (Simulation time: 0 hr 0 min 32 sec) 
Heartbeat CPU 0 instructions: 7000001 cycles: 11482035 heartbeat IPC: 0.558853 cumulative IPC: 0.55133 (Simulation time: 0 hr 0 min 38 sec) 
Heartbeat CPU 0 instructions: 8000000 cycles: 13312874 heartbeat IPC: 0.546197 cumulative IPC: 0.550591 (Simulation time: 0 hr 0 min 43 sec) 
Heartbeat CPU 0 instructions: 9000002 cycles: 15137287 heartbeat IPC: 0.548123 cumulative IPC: 0.550281 (Simulation time: 0 hr 0 min 49 sec) 
Heartbeat CPU 0 instructions: 10000000 cycles: 16963532 heartbeat IPC: 0.547571 cumulative IPC: 0.549978 (Simulation time: 0 hr 0 min 55 sec) 
Heartbeat CPU 0 instructions: 11000003 cycles: 18738139 heartbeat IPC: 0.563507 cumulative IPC: 0.551302 (Simulation time: 0 hr 1 min 0 sec) 
Finished CPU 0 instructions: 10000002 cycles: 18138886 cummulative IPC: 0.551302 (Simulation time: 0 hr 1 min 0 sec) 

ChampSim completed all CPUs

Region of Interest Statistics

CPU 0 cummulative IPC: 0.551302 instructions: 10000002 cycles: 18138886
LLC TOTAL     ACCESS:      11674  HIT:       3201  MISS:       8473
LLC LOAD      ACCESS:       8711  HIT:        343  MISS:       8368
LLC RFO       ACCESS:        115  HIT:         10  MISS:        105
LLC PREFETCH  ACCESS:          0  HIT:          0  MISS:          0
LLC WRITEBACK ACCESS:       2848  HIT:       2848  MISS:          0

*** ChampSim Multicore Out-of-Order Simulator ***

Warmup Instructions: 1000000
Simulation Instructions: 10000000
Configuration: 1
Number of CPUs: 1
LLC sets: 2048
LLC ways: 16
Off-chip DRAM Channels: 1 Width: 64-bit Data Rate: 1600 MT/s

CPU 0 runs /datasets/cs240c-wi22-a00-public/data/Assignment2-gz/wrf_1228B.trace.gz
Heartbeat CPU 0 instructions: 1000003 cycles: 590333 heartbeat IPC: 1.69396 cumulative IPC: 1.69396 (Simulation time: 0 hr 0 min 5 sec) 

Warmup complete CPU 0 instructions: 1000003 cycles: 590333 (Simulation time: 0 hr 0 min 5 sec) 

Heartbeat CPU 0 instructions: 2000000 cycles: 3977281 heartbeat IPC: 0.29525 cumulative IPC: 0.29525 (Simulation time: 0 hr 0 min 11 sec) 
Heartbeat CPU 0 instructions: 3000001 cycles: 6402880 heartbeat IPC: 0.41227 cumulative IPC: 0.344083 (Simulation time: 0 hr 0 min 17 sec) 
Heartbeat CPU 0 instructions: 4000000 cycles: 8626695 heartbeat IPC: 0.449677 cumulative IPC: 0.373303 (Simulation time: 0 hr 0 min 23 sec) 
Heartbeat CPU 0 instructions: 5000000 cycles: 11053710 heartbeat IPC: 0.412029 cumulative IPC: 0.382285 (Simulation time: 0 hr 0 min 29 sec) 
Heartbeat CPU 0 instructions: 6000002 cycles: 12896382 heartbeat IPC: 0.542691 cumulative IPC: 0.406304 (Simulation time: 0 hr 0 min 35 sec) 
Heartbeat CPU 0 instructions: 7000001 cycles: 14735304 heartbeat IPC: 0.543796 cumulative IPC: 0.424179 (Simulation time: 0 hr 0 min 40 sec) 
Heartbeat CPU 0 instructions: 8000000 cycles: 16511071 heartbeat IPC: 0.563136 cumulative IPC: 0.439678 (Simulation time: 0 hr 0 min 45 sec) 
Heartbeat CPU 0 instructions: 9000001 cycles: 18196446 heartbeat IPC: 0.59334 cumulative IPC: 0.454388 (Simulation time: 0 hr 0 min 50 sec) 
Heartbeat CPU 0 instructions: 10000002 cycles: 19863239 heartbeat IPC: 0.599955 cumulative IPC: 0.466977 (Simulation time: 0 hr 0 min 55 sec) 
Heartbeat CPU 0 instructions: 11000003 cycles: 21464968 heartbeat IPC: 0.624326 cumulative IPC: 0.47905 (Simulation time: 0 hr 1 min 0 sec) 
Finished CPU 0 instructions: 10000000 cycles: 20874635 cummulative IPC: 0.47905 (Simulation time: 0 hr 1 min 0 sec) 

ChampSim completed all CPUs

Region of Interest Statistics

CPU 0 cummulative IPC: 0.47905 instructions: 10000000 cycles: 20874635
LLC TOTAL     ACCESS:     339699  HIT:      83891  MISS:     255808
LLC LOAD      ACCESS:     175130  HIT:       9365  MISS:     165765
LLC RFO       ACCESS:      59708  HIT:         58  MISS:      59650
LLC PREFETCH  ACCESS:          0  HIT:          0  MISS:          0
LLC WRITEBACK ACCESS:     104861  HIT:      74468  MISS:      30393

*** ChampSim Multicore Out-of-Order Simulator ***

Warmup Instructions: 1000000
Simulation Instructions: 10000000
Configuration: 1
Number of CPUs: 1
LLC sets: 2048
LLC ways: 16
Off-chip DRAM Channels: 1 Width: 64-bit Data Rate: 1600 MT/s

CPU 0 runs /datasets/cs240c-wi22-a00-public/data/Assignment2-gz/wrf_1650B.trace.gz
Heartbeat CPU 0 instructions: 1000000 cycles: 514412 heartbeat IPC: 1.94397 cumulative IPC: 1.94397 (Simulation time: 0 hr 0 min 4 sec) 

Warmup complete CPU 0 instructions: 1000003 cycles: 514413 (Simulation time: 0 hr 0 min 4 sec) 

Heartbeat CPU 0 instructions: 2000000 cycles: 2136198 heartbeat IPC: 0.616604 cumulative IPC: 0.616603 (Simulation time: 0 hr 0 min 10 sec) 
Heartbeat CPU 0 instructions: 3000001 cycles: 3776793 heartbeat IPC: 0.609536 cumulative IPC: 0.613049 (Simulation time: 0 hr 0 min 15 sec) 
Heartbeat CPU 0 instructions: 4000000 cycles: 5426812 heartbeat IPC: 0.606053 cumulative IPC: 0.610699 (Simulation time: 0 hr 0 min 21 sec) 
Heartbeat CPU 0 instructions: 5000001 cycles: 7059416 heartbeat IPC: 0.612519 cumulative IPC: 0.611153 (Simulation time: 0 hr 0 min 26 sec) 
Heartbeat CPU 0 instructions: 6000003 cycles: 8692293 heartbeat IPC: 0.612417 cumulative IPC: 0.611405 (Simulation time: 0 hr 0 min 32 sec) 
Heartbeat CPU 0 instructions: 7000000 cycles: 10317953 heartbeat IPC: 0.615133 cumulative IPC: 0.612024 (Simulation time: 0 hr 0 min 37 sec) 
Heartbeat CPU 0 instructions: 8000000 cycles: 11940708 heartbeat IPC: 0.616236 cumulative IPC: 0.612622 (Simulation time: 0 hr 0 min 43 sec) 
Heartbeat CPU 0 instructions: 9000001 cycles: 13557337 heartbeat IPC: 0.618572 cumulative IPC: 0.613359 (Simulation time: 0 hr 0 min 49 sec) 
Heartbeat CPU 0 instructions: 10000001 cycles: 15166081 heartbeat IPC: 0.621603 cumulative IPC: 0.614264 (Simulation time: 0 hr 0 min 54 sec) 
Heartbeat CPU 0 instructions: 11000000 cycles: 16775589 heartbeat IPC: 0.621307 cumulative IPC: 0.614962 (Simulation time: 0 hr 1 min 0 sec) 
Finished CPU 0 instructions: 10000001 cycles: 16261177 cummulative IPC: 0.614962 (Simulation time: 0 hr 1 min 0 sec) 

ChampSim completed all CPUs

Region of Interest Statistics

CPU 0 cummulative IPC: 0.614962 instructions: 10000001 cycles: 16261177
LLC TOTAL     ACCESS:      18424  HIT:       3585  MISS:      14839
LLC LOAD      ACCESS:      10668  HIT:          4  MISS:      10664
LLC RFO       ACCESS:       4175  HIT:          0  MISS:       4175
LLC PREFETCH  ACCESS:          0  HIT:          0  MISS:          0
LLC WRITEBACK ACCESS:       3581  HIT:       3581  MISS:          0

*** ChampSim Multicore Out-of-Order Simulator ***

Warmup Instructions: 1000000
Simulation Instructions: 10000000
Configuration: 1
Number of CPUs: 1
LLC sets: 2048
LLC ways: 16
Off-chip DRAM Channels: 1 Width: 64-bit Data Rate: 1600 MT/s

CPU 0 runs /datasets/cs240c-wi22-a00-public/data/Assignment2-gz/zeusmp_100B.trace.gz
Heartbeat CPU 0 instructions: 1000002 cycles: 464468 heartbeat IPC: 2.15301 cumulative IPC: 2.15301 (Simulation time: 0 hr 0 min 4 sec) 

Warmup complete CPU 0 instructions: 1000002 cycles: 464468 (Simulation time: 0 hr 0 min 4 sec) 

Heartbeat CPU 0 instructions: 2000002 cycles: 1384735 heartbeat IPC: 1.08664 cumulative IPC: 1.08664 (Simulation time: 0 hr 0 min 8 sec) 
Heartbeat CPU 0 instructions: 3000000 cycles: 2303891 heartbeat IPC: 1.08795 cumulative IPC: 1.0873 (Simulation time: 0 hr 0 min 12 sec) 
Heartbeat CPU 0 instructions: 4000000 cycles: 3222613 heartbeat IPC: 1.08847 cumulative IPC: 1.08769 (Simulation time: 0 hr 0 min 16 sec) 
Heartbeat CPU 0 instructions: 5000003 cycles: 4158149 heartbeat IPC: 1.06891 cumulative IPC: 1.08293 (Simulation time: 0 hr 0 min 20 sec) 
Heartbeat CPU 0 instructions: 6000001 cycles: 5080047 heartbeat IPC: 1.08472 cumulative IPC: 1.08329 (Simulation time: 0 hr 0 min 24 sec) 
Heartbeat CPU 0 instructions: 7000001 cycles: 6002717 heartbeat IPC: 1.08381 cumulative IPC: 1.08337 (Simulation time: 0 hr 0 min 28 sec) 
Heartbeat CPU 0 instructions: 8000000 cycles: 6924931 heartbeat IPC: 1.08435 cumulative IPC: 1.08351 (Simulation time: 0 hr 0 min 33 sec) 
Heartbeat CPU 0 instructions: 9000001 cycles: 7866273 heartbeat IPC: 1.06231 cumulative IPC: 1.08082 (Simulation time: 0 hr 0 min 37 sec) 
Heartbeat CPU 0 instructions: 10000002 cycles: 8787280 heartbeat IPC: 1.08577 cumulative IPC: 1.08137 (Simulation time: 0 hr 0 min 41 sec) 
Heartbeat CPU 0 instructions: 11000000 cycles: 9710240 heartbeat IPC: 1.08347 cumulative IPC: 1.08158 (Simulation time: 0 hr 0 min 45 sec) 
Finished CPU 0 instructions: 10000002 cycles: 9245773 cummulative IPC: 1.08158 (Simulation time: 0 hr 0 min 45 sec) 

ChampSim completed all CPUs

Region of Interest Statistics

CPU 0 cummulative IPC: 1.08158 instructions: 10000002 cycles: 9245773
LLC TOTAL     ACCESS:      53709  HIT:      14870  MISS:      38839
LLC LOAD      ACCESS:      29862  HIT:       2057  MISS:      27805
LLC RFO       ACCESS:      11735  HIT:        738  MISS:      10997
LLC PREFETCH  ACCESS:          0  HIT:          0  MISS:          0
LLC WRITEBACK ACCESS:      12112  HIT:      12075  MISS:         37

*** ChampSim Multicore Out-of-Order Simulator ***

Warmup Instructions: 1000000
Simulation Instructions: 10000000
Configuration: 1
Number of CPUs: 1
LLC sets: 2048
LLC ways: 16
Off-chip DRAM Channels: 1 Width: 64-bit Data Rate: 1600 MT/s

CPU 0 runs /datasets/cs240c-wi22-a00-public/data/Assignment2-gz/zeusmp_300B.trace.gz
Heartbeat CPU 0 instructions: 1000003 cycles: 508391 heartbeat IPC: 1.967 cumulative IPC: 1.967 (Simulation time: 0 hr 0 min 4 sec) 

Warmup complete CPU 0 instructions: 1000003 cycles: 508391 (Simulation time: 0 hr 0 min 4 sec) 

Heartbeat CPU 0 instructions: 2000003 cycles: 1531413 heartbeat IPC: 0.977496 cumulative IPC: 0.977496 (Simulation time: 0 hr 0 min 8 sec) 
Heartbeat CPU 0 instructions: 3000003 cycles: 2520598 heartbeat IPC: 1.01093 cumulative IPC: 0.993933 (Simulation time: 0 hr 0 min 12 sec) 
Heartbeat CPU 0 instructions: 4000000 cycles: 3389946 heartbeat IPC: 1.15028 cumulative IPC: 1.0411 (Simulation time: 0 hr 0 min 16 sec) 
Heartbeat CPU 0 instructions: 5000001 cycles: 4265527 heartbeat IPC: 1.1421 cumulative IPC: 1.06464 (Simulation time: 0 hr 0 min 19 sec) 
Heartbeat CPU 0 instructions: 6000000 cycles: 5132596 heartbeat IPC: 1.15331 cumulative IPC: 1.08127 (Simulation time: 0 hr 0 min 23 sec) 
Heartbeat CPU 0 instructions: 7000000 cycles: 6084126 heartbeat IPC: 1.05094 cumulative IPC: 1.07609 (Simulation time: 0 hr 0 min 27 sec) 
Heartbeat CPU 0 instructions: 8000000 cycles: 7105247 heartbeat IPC: 0.979316 cumulative IPC: 1.06111 (Simulation time: 0 hr 0 min 31 sec) 
Heartbeat CPU 0 instructions: 9000000 cycles: 8047831 heartbeat IPC: 1.06091 cumulative IPC: 1.06109 (Simulation time: 0 hr 0 min 35 sec) 
Heartbeat CPU 0 instructions: 10000002 cycles: 8909083 heartbeat IPC: 1.1611 cumulative IPC: 1.07134 (Simulation time: 0 hr 0 min 39 sec) 
Heartbeat CPU 0 instructions: 11000003 cycles: 9776338 heartbeat IPC: 1.15306 cumulative IPC: 1.07899 (Simulation time: 0 hr 0 min 43 sec) 
Finished CPU 0 instructions: 10000000 cycles: 9267947 cummulative IPC: 1.07899 (Simulation time: 0 hr 0 min 43 sec) 

ChampSim completed all CPUs

Region of Interest Statistics

CPU 0 cummulative IPC: 1.07899 instructions: 10000000 cycles: 9267947
LLC TOTAL     ACCESS:      61903  HIT:      32447  MISS:      29456
LLC LOAD      ACCESS:      30249  HIT:      10862  MISS:      19387
LLC RFO       ACCESS:      15603  HIT:       5538  MISS:      10065
LLC PREFETCH  ACCESS:          0  HIT:          0  MISS:          0
LLC WRITEBACK ACCESS:      16051  HIT:      16047  MISS:          4

*** ChampSim Multicore Out-of-Order Simulator ***

Warmup Instructions: 1000000
Simulation Instructions: 10000000
Configuration: 1
Number of CPUs: 1
LLC sets: 2048
LLC ways: 16
Off-chip DRAM Channels: 1 Width: 64-bit Data Rate: 1600 MT/s

CPU 0 runs /datasets/cs240c-wi22-a00-public/data/Assignment2-gz/zeusmp_600B.trace.gz
Heartbeat CPU 0 instructions: 1000000 cycles: 407507 heartbeat IPC: 2.45395 cumulative IPC: 2.45395 (Simulation time: 0 hr 0 min 3 sec) 

Warmup complete CPU 0 instructions: 1000004 cycles: 407508 (Simulation time: 0 hr 0 min 3 sec) 

Heartbeat CPU 0 instructions: 2000001 cycles: 1276030 heartbeat IPC: 1.15138 cumulative IPC: 1.15138 (Simulation time: 0 hr 0 min 7 sec) 
Heartbeat CPU 0 instructions: 3000000 cycles: 2151898 heartbeat IPC: 1.14172 cumulative IPC: 1.14653 (Simulation time: 0 hr 0 min 12 sec) 
Heartbeat CPU 0 instructions: 4000000 cycles: 3021617 heartbeat IPC: 1.1498 cumulative IPC: 1.14762 (Simulation time: 0 hr 0 min 16 sec) 
Heartbeat CPU 0 instructions: 5000001 cycles: 3889497 heartbeat IPC: 1.15223 cumulative IPC: 1.14877 (Simulation time: 0 hr 0 min 20 sec) 
Heartbeat CPU 0 instructions: 6000000 cycles: 4758109 heartbeat IPC: 1.15126 cumulative IPC: 1.14927 (Simulation time: 0 hr 0 min 24 sec) 
Heartbeat CPU 0 instructions: 7000002 cycles: 5631381 heartbeat IPC: 1.14512 cumulative IPC: 1.14857 (Simulation time: 0 hr 0 min 29 sec) 
Heartbeat CPU 0 instructions: 8000000 cycles: 6501126 heartbeat IPC: 1.14976 cumulative IPC: 1.14874 (Simulation time: 0 hr 0 min 33 sec) 
Heartbeat CPU 0 instructions: 9000000 cycles: 7374520 heartbeat IPC: 1.14496 cumulative IPC: 1.14827 (Simulation time: 0 hr 0 min 37 sec) 
Heartbeat CPU 0 instructions: 10000002 cycles: 8246420 heartbeat IPC: 1.14692 cumulative IPC: 1.14812 (Simulation time: 0 hr 0 min 41 sec) 
Heartbeat CPU 0 instructions: 11000000 cycles: 9119574 heartbeat IPC: 1.14527 cumulative IPC: 1.14783 (Simulation time: 0 hr 0 min 45 sec) 
Finished CPU 0 instructions: 10000000 cycles: 8712069 cummulative IPC: 1.14783 (Simulation time: 0 hr 0 min 45 sec) 

ChampSim completed all CPUs

Region of Interest Statistics

CPU 0 cummulative IPC: 1.14783 instructions: 10000000 cycles: 8712069
LLC TOTAL     ACCESS:      40963  HIT:       9625  MISS:      31338
LLC LOAD      ACCESS:      29110  HIT:       3715  MISS:      25395
LLC RFO       ACCESS:       5942  HIT:          0  MISS:       5942
LLC PREFETCH  ACCESS:          0  HIT:          0  MISS:          0
LLC WRITEBACK ACCESS:       5911  HIT:       5910  MISS:          1
