
*** ChampSim Multicore Out-of-Order Simulator ***

Warmup Instructions: 1000000
Simulation Instructions: 10000000
Configuration: 1
Number of CPUs: 1
LLC sets: 2048
LLC ways: 16
Off-chip DRAM Channels: 1 Width: 64-bit Data Rate: 1600 MT/s

CPU 0 runs /datasets/cs240c-wi22-a00-public/data/Assignment2-gz/astar_163B.trace.gz
Heartbeat CPU 0 instructions: 1000002 cycles: 530774 heartbeat IPC: 1.88404 cumulative IPC: 1.88404 (Simulation time: 0 hr 0 min 4 sec) 

Warmup complete CPU 0 instructions: 1000002 cycles: 530774 (Simulation time: 0 hr 0 min 4 sec) 

Heartbeat CPU 0 instructions: 2000003 cycles: 2872756 heartbeat IPC: 0.426989 cumulative IPC: 0.426989 (Simulation time: 0 hr 0 min 8 sec) 
Heartbeat CPU 0 instructions: 3000001 cycles: 5139590 heartbeat IPC: 0.441143 cumulative IPC: 0.433951 (Simulation time: 0 hr 0 min 12 sec) 
Heartbeat CPU 0 instructions: 4000000 cycles: 7393287 heartbeat IPC: 0.443715 cumulative IPC: 0.437157 (Simulation time: 0 hr 0 min 17 sec) 
Heartbeat CPU 0 instructions: 5000000 cycles: 9611064 heartbeat IPC: 0.450902 cumulative IPC: 0.440514 (Simulation time: 0 hr 0 min 21 sec) 
Heartbeat CPU 0 instructions: 6000001 cycles: 11782770 heartbeat IPC: 0.460468 cumulative IPC: 0.444366 (Simulation time: 0 hr 0 min 26 sec) 
Heartbeat CPU 0 instructions: 7000001 cycles: 13962156 heartbeat IPC: 0.458845 cumulative IPC: 0.446715 (Simulation time: 0 hr 0 min 30 sec) 
Heartbeat CPU 0 instructions: 8000000 cycles: 16112362 heartbeat IPC: 0.465071 cumulative IPC: 0.449248 (Simulation time: 0 hr 0 min 35 sec) 
Heartbeat CPU 0 instructions: 9000000 cycles: 18295810 heartbeat IPC: 0.457991 cumulative IPC: 0.450323 (Simulation time: 0 hr 0 min 39 sec) 
Heartbeat CPU 0 instructions: 10000000 cycles: 20538858 heartbeat IPC: 0.445822 cumulative IPC: 0.449818 (Simulation time: 0 hr 0 min 44 sec) 
Heartbeat CPU 0 instructions: 11000003 cycles: 22792189 heartbeat IPC: 0.443789 cumulative IPC: 0.449208 (Simulation time: 0 hr 0 min 48 sec) 
Finished CPU 0 instructions: 10000001 cycles: 22261415 cummulative IPC: 0.449208 (Simulation time: 0 hr 0 min 48 sec) 

ChampSim completed all CPUs

Region of Interest Statistics

CPU 0 cummulative IPC: 0.449208 instructions: 10000001 cycles: 22261415
LLC TOTAL     ACCESS:      50840  HIT:      25440  MISS:      25400
LLC LOAD      ACCESS:      28165  HIT:       6511  MISS:      21654
LLC RFO       ACCESS:       4041  HIT:        296  MISS:       3745
LLC PREFETCH  ACCESS:          0  HIT:          0  MISS:          0
LLC WRITEBACK ACCESS:      18634  HIT:      18633  MISS:          1

*** ChampSim Multicore Out-of-Order Simulator ***

Warmup Instructions: 1000000
Simulation Instructions: 10000000
Configuration: 1
Number of CPUs: 1
LLC sets: 2048
LLC ways: 16
Off-chip DRAM Channels: 1 Width: 64-bit Data Rate: 1600 MT/s

CPU 0 runs /datasets/cs240c-wi22-a00-public/data/Assignment2-gz/astar_23B.trace.gz
Heartbeat CPU 0 instructions: 1000000 cycles: 360103 heartbeat IPC: 2.77698 cumulative IPC: 2.77698 (Simulation time: 0 hr 0 min 3 sec) 

Warmup complete CPU 0 instructions: 1000004 cycles: 360104 (Simulation time: 0 hr 0 min 3 sec) 

Heartbeat CPU 0 instructions: 2000003 cycles: 3277268 heartbeat IPC: 0.3428 cumulative IPC: 0.342798 (Simulation time: 0 hr 0 min 7 sec) 
Heartbeat CPU 0 instructions: 3000000 cycles: 5972912 heartbeat IPC: 0.370968 cumulative IPC: 0.356327 (Simulation time: 0 hr 0 min 10 sec) 
Heartbeat CPU 0 instructions: 4000000 cycles: 8754877 heartbeat IPC: 0.359458 cumulative IPC: 0.357365 (Simulation time: 0 hr 0 min 14 sec) 
Heartbeat CPU 0 instructions: 5000002 cycles: 11500578 heartbeat IPC: 0.364206 cumulative IPC: 0.359051 (Simulation time: 0 hr 0 min 17 sec) 
Heartbeat CPU 0 instructions: 6000000 cycles: 14284641 heartbeat IPC: 0.359187 cumulative IPC: 0.359078 (Simulation time: 0 hr 0 min 21 sec) 
Heartbeat CPU 0 instructions: 7000000 cycles: 17401121 heartbeat IPC: 0.320875 cumulative IPC: 0.352091 (Simulation time: 0 hr 0 min 24 sec) 
Heartbeat CPU 0 instructions: 8000000 cycles: 20190236 heartbeat IPC: 0.358537 cumulative IPC: 0.352998 (Simulation time: 0 hr 0 min 27 sec) 
Heartbeat CPU 0 instructions: 9000000 cycles: 22998084 heartbeat IPC: 0.356145 cumulative IPC: 0.353388 (Simulation time: 0 hr 0 min 31 sec) 
Heartbeat CPU 0 instructions: 10000003 cycles: 25961620 heartbeat IPC: 0.337436 cumulative IPC: 0.351542 (Simulation time: 0 hr 0 min 34 sec) 
Heartbeat CPU 0 instructions: 11000000 cycles: 29141424 heartbeat IPC: 0.314484 cumulative IPC: 0.347447 (Simulation time: 0 hr 0 min 38 sec) 
Finished CPU 0 instructions: 10000000 cycles: 28781322 cummulative IPC: 0.347448 (Simulation time: 0 hr 0 min 38 sec) 

ChampSim completed all CPUs

Region of Interest Statistics

CPU 0 cummulative IPC: 0.347448 instructions: 10000000 cycles: 28781322
LLC TOTAL     ACCESS:     275774  HIT:     251607  MISS:      24167
LLC LOAD      ACCESS:     204727  HIT:     180801  MISS:      23926
LLC RFO       ACCESS:       1164  HIT:       1163  MISS:          1
LLC PREFETCH  ACCESS:          0  HIT:          0  MISS:          0
LLC WRITEBACK ACCESS:      69883  HIT:      69643  MISS:        240

*** ChampSim Multicore Out-of-Order Simulator ***

Warmup Instructions: 1000000
Simulation Instructions: 10000000
Configuration: 1
Number of CPUs: 1
LLC sets: 2048
LLC ways: 16
Off-chip DRAM Channels: 1 Width: 64-bit Data Rate: 1600 MT/s

CPU 0 runs /datasets/cs240c-wi22-a00-public/data/Assignment2-gz/astar_313B.trace.gz
Heartbeat CPU 0 instructions: 1000001 cycles: 678650 heartbeat IPC: 1.47352 cumulative IPC: 1.47352 (Simulation time: 0 hr 0 min 5 sec) 

Warmup complete CPU 0 instructions: 1000001 cycles: 678650 (Simulation time: 0 hr 0 min 5 sec) 

Heartbeat CPU 0 instructions: 2000003 cycles: 11074699 heartbeat IPC: 0.0961906 cumulative IPC: 0.0961906 (Simulation time: 0 hr 0 min 11 sec) 
Heartbeat CPU 0 instructions: 3000003 cycles: 18054235 heartbeat IPC: 0.143276 cumulative IPC: 0.115104 (Simulation time: 0 hr 0 min 16 sec) 
Heartbeat CPU 0 instructions: 4000000 cycles: 25373221 heartbeat IPC: 0.136631 cumulative IPC: 0.121484 (Simulation time: 0 hr 0 min 21 sec) 
Heartbeat CPU 0 instructions: 5000002 cycles: 33106534 heartbeat IPC: 0.129311 cumulative IPC: 0.123351 (Simulation time: 0 hr 0 min 27 sec) 
Heartbeat CPU 0 instructions: 6000001 cycles: 42741072 heartbeat IPC: 0.103793 cumulative IPC: 0.118871 (Simulation time: 0 hr 0 min 33 sec) 
Heartbeat CPU 0 instructions: 7000000 cycles: 52939692 heartbeat IPC: 0.0980524 cumulative IPC: 0.114808 (Simulation time: 0 hr 0 min 39 sec) 
Heartbeat CPU 0 instructions: 8000000 cycles: 63601182 heartbeat IPC: 0.0937955 cumulative IPC: 0.111248 (Simulation time: 0 hr 0 min 45 sec) 
Heartbeat CPU 0 instructions: 9000001 cycles: 73696538 heartbeat IPC: 0.0990555 cumulative IPC: 0.109562 (Simulation time: 0 hr 0 min 51 sec) 
Heartbeat CPU 0 instructions: 10000002 cycles: 80760318 heartbeat IPC: 0.141567 cumulative IPC: 0.112385 (Simulation time: 0 hr 0 min 56 sec) 
Heartbeat CPU 0 instructions: 11000000 cycles: 87579598 heartbeat IPC: 0.146643 cumulative IPC: 0.115074 (Simulation time: 0 hr 1 min 1 sec) 
Finished CPU 0 instructions: 10000003 cycles: 86900950 cummulative IPC: 0.115074 (Simulation time: 0 hr 1 min 1 sec) 

ChampSim completed all CPUs

Region of Interest Statistics

CPU 0 cummulative IPC: 0.115074 instructions: 10000003 cycles: 86900950
LLC TOTAL     ACCESS:    1128784  HIT:     463953  MISS:     664831
LLC LOAD      ACCESS:     241903  HIT:      44393  MISS:     197510
LLC RFO       ACCESS:     402462  HIT:     152194  MISS:     250268
LLC PREFETCH  ACCESS:          0  HIT:          0  MISS:          0
LLC WRITEBACK ACCESS:     484419  HIT:     267366  MISS:     217053

*** ChampSim Multicore Out-of-Order Simulator ***

Warmup Instructions: 1000000
Simulation Instructions: 10000000
Configuration: 1
Number of CPUs: 1
LLC sets: 2048
LLC ways: 16
Off-chip DRAM Channels: 1 Width: 64-bit Data Rate: 1600 MT/s

CPU 0 runs /datasets/cs240c-wi22-a00-public/data/Assignment2-gz/bzip2_183B.trace.gz
Heartbeat CPU 0 instructions: 1000000 cycles: 448069 heartbeat IPC: 2.2318 cumulative IPC: 2.2318 (Simulation time: 0 hr 0 min 4 sec) 

Warmup complete CPU 0 instructions: 1000002 cycles: 448073 (Simulation time: 0 hr 0 min 4 sec) 

Heartbeat CPU 0 instructions: 2000001 cycles: 1589751 heartbeat IPC: 0.875902 cumulative IPC: 0.875903 (Simulation time: 0 hr 0 min 7 sec) 
Heartbeat CPU 0 instructions: 3000001 cycles: 2586057 heartbeat IPC: 1.00371 cumulative IPC: 0.93546 (Simulation time: 0 hr 0 min 11 sec) 
Heartbeat CPU 0 instructions: 4000000 cycles: 4020775 heartbeat IPC: 0.697 cumulative IPC: 0.8397 (Simulation time: 0 hr 0 min 14 sec) 
Heartbeat CPU 0 instructions: 5000000 cycles: 5233575 heartbeat IPC: 0.824538 cumulative IPC: 0.835858 (Simulation time: 0 hr 0 min 18 sec) 
Heartbeat CPU 0 instructions: 6000001 cycles: 6707509 heartbeat IPC: 0.678457 cumulative IPC: 0.798794 (Simulation time: 0 hr 0 min 21 sec) 
Heartbeat CPU 0 instructions: 7000001 cycles: 8286603 heartbeat IPC: 0.633274 cumulative IPC: 0.76545 (Simulation time: 0 hr 0 min 25 sec) 
Heartbeat CPU 0 instructions: 8000000 cycles: 9508928 heartbeat IPC: 0.818112 cumulative IPC: 0.772554 (Simulation time: 0 hr 0 min 28 sec) 
Heartbeat CPU 0 instructions: 9000003 cycles: 10806487 heartbeat IPC: 0.77068 cumulative IPC: 0.772319 (Simulation time: 0 hr 0 min 31 sec) 
Heartbeat CPU 0 instructions: 10000000 cycles: 12124728 heartbeat IPC: 0.758584 cumulative IPC: 0.770769 (Simulation time: 0 hr 0 min 34 sec) 
Heartbeat CPU 0 instructions: 11000000 cycles: 13674310 heartbeat IPC: 0.645335 cumulative IPC: 0.756073 (Simulation time: 0 hr 0 min 38 sec) 
Finished CPU 0 instructions: 10000001 cycles: 13226239 cummulative IPC: 0.756073 (Simulation time: 0 hr 0 min 38 sec) 

ChampSim completed all CPUs

Region of Interest Statistics

CPU 0 cummulative IPC: 0.756073 instructions: 10000001 cycles: 13226239
LLC TOTAL     ACCESS:      90603  HIT:      67076  MISS:      23527
LLC LOAD      ACCESS:      39830  HIT:      25728  MISS:      14102
LLC RFO       ACCESS:      22854  HIT:      13439  MISS:       9415
LLC PREFETCH  ACCESS:          0  HIT:          0  MISS:          0
LLC WRITEBACK ACCESS:      27919  HIT:      27909  MISS:         10

*** ChampSim Multicore Out-of-Order Simulator ***

Warmup Instructions: 1000000
Simulation Instructions: 10000000
Configuration: 1
Number of CPUs: 1
LLC sets: 2048
LLC ways: 16
Off-chip DRAM Channels: 1 Width: 64-bit Data Rate: 1600 MT/s

CPU 0 runs /datasets/cs240c-wi22-a00-public/data/Assignment2-gz/bzip2_259B.trace.gz
Heartbeat CPU 0 instructions: 1000002 cycles: 428954 heartbeat IPC: 2.33126 cumulative IPC: 2.33126 (Simulation time: 0 hr 0 min 3 sec) 

Warmup complete CPU 0 instructions: 1000002 cycles: 428954 (Simulation time: 0 hr 0 min 3 sec) 

Heartbeat CPU 0 instructions: 2000003 cycles: 1623568 heartbeat IPC: 0.837091 cumulative IPC: 0.837091 (Simulation time: 0 hr 0 min 7 sec) 
Heartbeat CPU 0 instructions: 3000000 cycles: 2760216 heartbeat IPC: 0.879777 cumulative IPC: 0.857904 (Simulation time: 0 hr 0 min 11 sec) 
Heartbeat CPU 0 instructions: 4000000 cycles: 3886158 heartbeat IPC: 0.888145 cumulative IPC: 0.867753 (Simulation time: 0 hr 0 min 14 sec) 
Heartbeat CPU 0 instructions: 5000001 cycles: 4925032 heartbeat IPC: 0.962582 cumulative IPC: 0.889664 (Simulation time: 0 hr 0 min 18 sec) 
Heartbeat CPU 0 instructions: 6000002 cycles: 5952448 heartbeat IPC: 0.973317 cumulative IPC: 0.905224 (Simulation time: 0 hr 0 min 22 sec) 
Heartbeat CPU 0 instructions: 7000003 cycles: 6976191 heartbeat IPC: 0.976809 cumulative IPC: 0.916417 (Simulation time: 0 hr 0 min 26 sec) 
Heartbeat CPU 0 instructions: 8000000 cycles: 8039916 heartbeat IPC: 0.94009 cumulative IPC: 0.919726 (Simulation time: 0 hr 0 min 30 sec) 
Heartbeat CPU 0 instructions: 9000000 cycles: 9065596 heartbeat IPC: 0.974963 cumulative IPC: 0.926286 (Simulation time: 0 hr 0 min 33 sec) 
Heartbeat CPU 0 instructions: 10000000 cycles: 9923444 heartbeat IPC: 1.16571 cumulative IPC: 0.947918 (Simulation time: 0 hr 0 min 36 sec) 
Heartbeat CPU 0 instructions: 11000002 cycles: 10905114 heartbeat IPC: 1.01867 cumulative IPC: 0.954548 (Simulation time: 0 hr 0 min 40 sec) 
Finished CPU 0 instructions: 10000000 cycles: 10476160 cummulative IPC: 0.954548 (Simulation time: 0 hr 0 min 40 sec) 

ChampSim completed all CPUs

Region of Interest Statistics

CPU 0 cummulative IPC: 0.954548 instructions: 10000000 cycles: 10476160
LLC TOTAL     ACCESS:      47217  HIT:      22736  MISS:      24481
LLC LOAD      ACCESS:       4408  HIT:        954  MISS:       3454
LLC RFO       ACCESS:      21033  HIT:          6  MISS:      21027
LLC PREFETCH  ACCESS:          0  HIT:          0  MISS:          0
LLC WRITEBACK ACCESS:      21776  HIT:      21776  MISS:          0

*** ChampSim Multicore Out-of-Order Simulator ***

Warmup Instructions: 1000000
Simulation Instructions: 10000000
Configuration: 1
Number of CPUs: 1
LLC sets: 2048
LLC ways: 16
Off-chip DRAM Channels: 1 Width: 64-bit Data Rate: 1600 MT/s

CPU 0 runs /datasets/cs240c-wi22-a00-public/data/Assignment2-gz/bzip2_281B.trace.gz
Heartbeat CPU 0 instructions: 1000000 cycles: 445723 heartbeat IPC: 2.24355 cumulative IPC: 2.24355 (Simulation time: 0 hr 0 min 3 sec) 

Warmup complete CPU 0 instructions: 1000004 cycles: 445724 (Simulation time: 0 hr 0 min 3 sec) 

Heartbeat CPU 0 instructions: 2000000 cycles: 2274656 heartbeat IPC: 0.546767 cumulative IPC: 0.546765 (Simulation time: 0 hr 0 min 7 sec) 
Heartbeat CPU 0 instructions: 3000000 cycles: 4271455 heartbeat IPC: 0.500802 cumulative IPC: 0.522775 (Simulation time: 0 hr 0 min 11 sec) 
Heartbeat CPU 0 instructions: 4000000 cycles: 6033336 heartbeat IPC: 0.567575 cumulative IPC: 0.536901 (Simulation time: 0 hr 0 min 14 sec) 
Heartbeat CPU 0 instructions: 5000002 cycles: 6987229 heartbeat IPC: 1.04834 cumulative IPC: 0.61148 (Simulation time: 0 hr 0 min 18 sec) 
Heartbeat CPU 0 instructions: 6000000 cycles: 8365308 heartbeat IPC: 0.725646 cumulative IPC: 0.631346 (Simulation time: 0 hr 0 min 21 sec) 
Heartbeat CPU 0 instructions: 7000002 cycles: 9576653 heartbeat IPC: 0.82553 cumulative IPC: 0.657107 (Simulation time: 0 hr 0 min 24 sec) 
Heartbeat CPU 0 instructions: 8000000 cycles: 10686776 heartbeat IPC: 0.900799 cumulative IPC: 0.683523 (Simulation time: 0 hr 0 min 27 sec) 
Heartbeat CPU 0 instructions: 9000000 cycles: 11986612 heartbeat IPC: 0.769328 cumulative IPC: 0.693187 (Simulation time: 0 hr 0 min 31 sec) 
Heartbeat CPU 0 instructions: 10000001 cycles: 13374914 heartbeat IPC: 0.720305 cumulative IPC: 0.696099 (Simulation time: 0 hr 0 min 34 sec) 
Heartbeat CPU 0 instructions: 11000000 cycles: 14871721 heartbeat IPC: 0.668088 cumulative IPC: 0.693193 (Simulation time: 0 hr 0 min 37 sec) 
Finished CPU 0 instructions: 10000000 cycles: 14425998 cummulative IPC: 0.693193 (Simulation time: 0 hr 0 min 37 sec) 

ChampSim completed all CPUs

Region of Interest Statistics

CPU 0 cummulative IPC: 0.693193 instructions: 10000000 cycles: 14425998
LLC TOTAL     ACCESS:     127993  HIT:      92157  MISS:      35836
LLC LOAD      ACCESS:      77449  HIT:      59445  MISS:      18004
LLC RFO       ACCESS:      23835  HIT:       6039  MISS:      17796
LLC PREFETCH  ACCESS:          0  HIT:          0  MISS:          0
LLC WRITEBACK ACCESS:      26709  HIT:      26673  MISS:         36

*** ChampSim Multicore Out-of-Order Simulator ***

Warmup Instructions: 1000000
Simulation Instructions: 10000000
Configuration: 1
Number of CPUs: 1
LLC sets: 2048
LLC ways: 16
Off-chip DRAM Channels: 1 Width: 64-bit Data Rate: 1600 MT/s

CPU 0 runs /datasets/cs240c-wi22-a00-public/data/Assignment2-gz/cactusADM_1039B.trace.gz
Heartbeat CPU 0 instructions: 1000000 cycles: 595112 heartbeat IPC: 1.68036 cumulative IPC: 1.68036 (Simulation time: 0 hr 0 min 4 sec) 

Warmup complete CPU 0 instructions: 1000004 cycles: 595113 (Simulation time: 0 hr 0 min 4 sec) 

Heartbeat CPU 0 instructions: 2000003 cycles: 2717463 heartbeat IPC: 0.471177 cumulative IPC: 0.471175 (Simulation time: 0 hr 0 min 9 sec) 
Heartbeat CPU 0 instructions: 3000003 cycles: 4845136 heartbeat IPC: 0.469997 cumulative IPC: 0.470585 (Simulation time: 0 hr 0 min 14 sec) 
Heartbeat CPU 0 instructions: 4000000 cycles: 6885225 heartbeat IPC: 0.490173 cumulative IPC: 0.476938 (Simulation time: 0 hr 0 min 19 sec) 
Heartbeat CPU 0 instructions: 5000001 cycles: 8973021 heartbeat IPC: 0.478974 cumulative IPC: 0.477446 (Simulation time: 0 hr 0 min 24 sec) 
Heartbeat CPU 0 instructions: 6000002 cycles: 11094133 heartbeat IPC: 0.471451 cumulative IPC: 0.476235 (Simulation time: 0 hr 0 min 30 sec) 
Heartbeat CPU 0 instructions: 7000000 cycles: 13223547 heartbeat IPC: 0.469612 cumulative IPC: 0.475118 (Simulation time: 0 hr 0 min 35 sec) 
Heartbeat CPU 0 instructions: 8000000 cycles: 15360976 heartbeat IPC: 0.467852 cumulative IPC: 0.474066 (Simulation time: 0 hr 0 min 40 sec) 
Heartbeat CPU 0 instructions: 9000002 cycles: 17434381 heartbeat IPC: 0.482299 cumulative IPC: 0.47508 (Simulation time: 0 hr 0 min 45 sec) 
Heartbeat CPU 0 instructions: 10000003 cycles: 20163117 heartbeat IPC: 0.36647 cumulative IPC: 0.459934 (Simulation time: 0 hr 0 min 50 sec) 
Heartbeat CPU 0 instructions: 11000003 cycles: 26743814 heartbeat IPC: 0.15196 cumulative IPC: 0.382428 (Simulation time: 0 hr 0 min 56 sec) 
Finished CPU 0 instructions: 10000003 cycles: 26148702 cummulative IPC: 0.382428 (Simulation time: 0 hr 0 min 56 sec) 

ChampSim completed all CPUs

Region of Interest Statistics

CPU 0 cummulative IPC: 0.382428 instructions: 10000003 cycles: 26148702
LLC TOTAL     ACCESS:     130126  HIT:      29745  MISS:     100381
LLC LOAD      ACCESS:      67899  HIT:        133  MISS:      67766
LLC RFO       ACCESS:      31388  HIT:        154  MISS:      31234
LLC PREFETCH  ACCESS:          0  HIT:          0  MISS:          0
LLC WRITEBACK ACCESS:      30839  HIT:      29458  MISS:       1381

*** ChampSim Multicore Out-of-Order Simulator ***

Warmup Instructions: 1000000
Simulation Instructions: 10000000
Configuration: 1
Number of CPUs: 1
LLC sets: 2048
LLC ways: 16
Off-chip DRAM Channels: 1 Width: 64-bit Data Rate: 1600 MT/s

CPU 0 runs /datasets/cs240c-wi22-a00-public/data/Assignment2-gz/cactusADM_1495B.trace.gz
Heartbeat CPU 0 instructions: 1000003 cycles: 593354 heartbeat IPC: 1.68534 cumulative IPC: 1.68534 (Simulation time: 0 hr 0 min 4 sec) 

Warmup complete CPU 0 instructions: 1000003 cycles: 593354 (Simulation time: 0 hr 0 min 4 sec) 

Heartbeat CPU 0 instructions: 2000000 cycles: 2666976 heartbeat IPC: 0.482247 cumulative IPC: 0.482247 (Simulation time: 0 hr 0 min 9 sec) 
Heartbeat CPU 0 instructions: 3000003 cycles: 4775429 heartbeat IPC: 0.474283 cumulative IPC: 0.478231 (Simulation time: 0 hr 0 min 15 sec) 
Heartbeat CPU 0 instructions: 4000000 cycles: 6885215 heartbeat IPC: 0.47398 cumulative IPC: 0.476806 (Simulation time: 0 hr 0 min 20 sec) 
Heartbeat CPU 0 instructions: 5000000 cycles: 8984197 heartbeat IPC: 0.476421 cumulative IPC: 0.47671 (Simulation time: 0 hr 0 min 25 sec) 
Heartbeat CPU 0 instructions: 6000001 cycles: 11009154 heartbeat IPC: 0.493838 cumulative IPC: 0.48004 (Simulation time: 0 hr 0 min 30 sec) 
Heartbeat CPU 0 instructions: 7000000 cycles: 13104824 heartbeat IPC: 0.477174 cumulative IPC: 0.47956 (Simulation time: 0 hr 0 min 35 sec) 
Heartbeat CPU 0 instructions: 8000000 cycles: 20416667 heartbeat IPC: 0.136764 cumulative IPC: 0.353119 (Simulation time: 0 hr 0 min 41 sec) 
Heartbeat CPU 0 instructions: 9000002 cycles: 22528655 heartbeat IPC: 0.473488 cumulative IPC: 0.364709 (Simulation time: 0 hr 0 min 46 sec) 
Heartbeat CPU 0 instructions: 10000002 cycles: 24588881 heartbeat IPC: 0.485384 cumulative IPC: 0.37507 (Simulation time: 0 hr 0 min 51 sec) 
Heartbeat CPU 0 instructions: 11000000 cycles: 26665729 heartbeat IPC: 0.481498 cumulative IPC: 0.383548 (Simulation time: 0 hr 0 min 56 sec) 
Finished CPU 0 instructions: 10000001 cycles: 26072376 cummulative IPC: 0.383548 (Simulation time: 0 hr 0 min 56 sec) 

ChampSim completed all CPUs

Region of Interest Statistics

CPU 0 cummulative IPC: 0.383548 instructions: 10000001 cycles: 26072376
LLC TOTAL     ACCESS:     130797  HIT:      30483  MISS:     100314
LLC LOAD      ACCESS:      67775  HIT:        579  MISS:      67196
LLC RFO       ACCESS:      31386  HIT:        192  MISS:      31194
LLC PREFETCH  ACCESS:          0  HIT:          0  MISS:          0
LLC WRITEBACK ACCESS:      31636  HIT:      29712  MISS:       1924

*** ChampSim Multicore Out-of-Order Simulator ***

Warmup Instructions: 1000000
Simulation Instructions: 10000000
Configuration: 1
Number of CPUs: 1
LLC sets: 2048
LLC ways: 16
Off-chip DRAM Channels: 1 Width: 64-bit Data Rate: 1600 MT/s

CPU 0 runs /datasets/cs240c-wi22-a00-public/data/Assignment2-gz/cactusADM_734B.trace.gz
Heartbeat CPU 0 instructions: 1000003 cycles: 592365 heartbeat IPC: 1.68815 cumulative IPC: 1.68815 (Simulation time: 0 hr 0 min 4 sec) 

Warmup complete CPU 0 instructions: 1000003 cycles: 592365 (Simulation time: 0 hr 0 min 4 sec) 

Heartbeat CPU 0 instructions: 2000001 cycles: 2697675 heartbeat IPC: 0.474988 cumulative IPC: 0.474988 (Simulation time: 0 hr 0 min 9 sec) 
Heartbeat CPU 0 instructions: 3000000 cycles: 4811187 heartbeat IPC: 0.473146 cumulative IPC: 0.474065 (Simulation time: 0 hr 0 min 15 sec) 
Heartbeat CPU 0 instructions: 4000000 cycles: 6870004 heartbeat IPC: 0.485716 cumulative IPC: 0.477886 (Simulation time: 0 hr 0 min 21 sec) 
Heartbeat CPU 0 instructions: 5000000 cycles: 8933575 heartbeat IPC: 0.484597 cumulative IPC: 0.479546 (Simulation time: 0 hr 0 min 26 sec) 
Heartbeat CPU 0 instructions: 6000002 cycles: 11047911 heartbeat IPC: 0.472963 cumulative IPC: 0.478215 (Simulation time: 0 hr 0 min 32 sec) 
Heartbeat CPU 0 instructions: 7000001 cycles: 13153179 heartbeat IPC: 0.474998 cumulative IPC: 0.477676 (Simulation time: 0 hr 0 min 38 sec) 
Heartbeat CPU 0 instructions: 8000000 cycles: 15244033 heartbeat IPC: 0.478273 cumulative IPC: 0.477761 (Simulation time: 0 hr 0 min 43 sec) 
Heartbeat CPU 0 instructions: 9000001 cycles: 17265108 heartbeat IPC: 0.494787 cumulative IPC: 0.479825 (Simulation time: 0 hr 0 min 49 sec) 
Heartbeat CPU 0 instructions: 10000002 cycles: 20425705 heartbeat IPC: 0.316396 cumulative IPC: 0.453781 (Simulation time: 0 hr 0 min 55 sec) 
Heartbeat CPU 0 instructions: 11000003 cycles: 27445822 heartbeat IPC: 0.142448 cumulative IPC: 0.372392 (Simulation time: 0 hr 1 min 2 sec) 
Finished CPU 0 instructions: 10000000 cycles: 26853457 cummulative IPC: 0.372392 (Simulation time: 0 hr 1 min 2 sec) 

ChampSim completed all CPUs

Region of Interest Statistics

CPU 0 cummulative IPC: 0.372392 instructions: 10000000 cycles: 26853457
LLC TOTAL     ACCESS:     130145  HIT:      29519  MISS:     100626
LLC LOAD      ACCESS:      67776  HIT:          5  MISS:      67771
LLC RFO       ACCESS:      31386  HIT:        237  MISS:      31149
LLC PREFETCH  ACCESS:          0  HIT:          0  MISS:          0
LLC WRITEBACK ACCESS:      30983  HIT:      29277  MISS:       1706

*** ChampSim Multicore Out-of-Order Simulator ***

Warmup Instructions: 1000000
Simulation Instructions: 10000000
Configuration: 1
Number of CPUs: 1
LLC sets: 2048
LLC ways: 16
Off-chip DRAM Channels: 1 Width: 64-bit Data Rate: 1600 MT/s

CPU 0 runs /datasets/cs240c-wi22-a00-public/data/Assignment2-gz/calculix_2655B.trace.gz
Heartbeat CPU 0 instructions: 1000003 cycles: 371402 heartbeat IPC: 2.69251 cumulative IPC: 2.69251 (Simulation time: 0 hr 0 min 3 sec) 

Warmup complete CPU 0 instructions: 1000003 cycles: 371402 (Simulation time: 0 hr 0 min 3 sec) 

Heartbeat CPU 0 instructions: 2000001 cycles: 998588 heartbeat IPC: 1.59442 cumulative IPC: 1.59442 (Simulation time: 0 hr 0 min 6 sec) 
Heartbeat CPU 0 instructions: 3000000 cycles: 1637272 heartbeat IPC: 1.56572 cumulative IPC: 1.57994 (Simulation time: 0 hr 0 min 9 sec) 
Heartbeat CPU 0 instructions: 4000000 cycles: 2654869 heartbeat IPC: 0.982707 cumulative IPC: 1.31379 (Simulation time: 0 hr 0 min 13 sec) 
Heartbeat CPU 0 instructions: 5000000 cycles: 3263973 heartbeat IPC: 1.64176 cumulative IPC: 1.38285 (Simulation time: 0 hr 0 min 16 sec) 
Heartbeat CPU 0 instructions: 6000003 cycles: 3843676 heartbeat IPC: 1.72503 cumulative IPC: 1.43998 (Simulation time: 0 hr 0 min 19 sec) 
Heartbeat CPU 0 instructions: 7000000 cycles: 4390993 heartbeat IPC: 1.82709 cumulative IPC: 1.49269 (Simulation time: 0 hr 0 min 22 sec) 
Heartbeat CPU 0 instructions: 8000000 cycles: 4938563 heartbeat IPC: 1.82625 cumulative IPC: 1.53268 (Simulation time: 0 hr 0 min 25 sec) 
Heartbeat CPU 0 instructions: 9000000 cycles: 5484995 heartbeat IPC: 1.83005 cumulative IPC: 1.56446 (Simulation time: 0 hr 0 min 28 sec) 
Heartbeat CPU 0 instructions: 10000002 cycles: 6451367 heartbeat IPC: 1.0348 cumulative IPC: 1.48027 (Simulation time: 0 hr 0 min 32 sec) 
Heartbeat CPU 0 instructions: 11000001 cycles: 7066505 heartbeat IPC: 1.62565 cumulative IPC: 1.49363 (Simulation time: 0 hr 0 min 35 sec) 
Finished CPU 0 instructions: 10000002 cycles: 6695104 cummulative IPC: 1.49363 (Simulation time: 0 hr 0 min 35 sec) 

ChampSim completed all CPUs

Region of Interest Statistics

CPU 0 cummulative IPC: 1.49363 instructions: 10000002 cycles: 6695104
LLC TOTAL     ACCESS:     107138  HIT:      91843  MISS:      15295
LLC LOAD      ACCESS:      99291  HIT:      84040  MISS:      15251
LLC RFO       ACCESS:         40  HIT:         36  MISS:          4
LLC PREFETCH  ACCESS:          0  HIT:          0  MISS:          0
LLC WRITEBACK ACCESS:       7807  HIT:       7767  MISS:         40

*** ChampSim Multicore Out-of-Order Simulator ***

Warmup Instructions: 1000000
Simulation Instructions: 10000000
Configuration: 1
Number of CPUs: 1
LLC sets: 2048
LLC ways: 16
Off-chip DRAM Channels: 1 Width: 64-bit Data Rate: 1600 MT/s

CPU 0 runs /datasets/cs240c-wi22-a00-public/data/Assignment2-gz/calculix_2670B.trace.gz
Heartbeat CPU 0 instructions: 1000003 cycles: 520140 heartbeat IPC: 1.92257 cumulative IPC: 1.92257 (Simulation time: 0 hr 0 min 3 sec) 

Warmup complete CPU 0 instructions: 1000003 cycles: 520140 (Simulation time: 0 hr 0 min 3 sec) 

Heartbeat CPU 0 instructions: 2000001 cycles: 1031883 heartbeat IPC: 1.9541 cumulative IPC: 1.9541 (Simulation time: 0 hr 0 min 6 sec) 
Heartbeat CPU 0 instructions: 3000003 cycles: 1508602 heartbeat IPC: 2.09768 cumulative IPC: 2.02335 (Simulation time: 0 hr 0 min 10 sec) 
Heartbeat CPU 0 instructions: 4000000 cycles: 1982350 heartbeat IPC: 2.11082 cumulative IPC: 2.05169 (Simulation time: 0 hr 0 min 13 sec) 
Heartbeat CPU 0 instructions: 5000000 cycles: 2459320 heartbeat IPC: 2.09657 cumulative IPC: 2.06273 (Simulation time: 0 hr 0 min 16 sec) 
Heartbeat CPU 0 instructions: 6000001 cycles: 2932872 heartbeat IPC: 2.1117 cumulative IPC: 2.07234 (Simulation time: 0 hr 0 min 19 sec) 
Heartbeat CPU 0 instructions: 7000001 cycles: 3409905 heartbeat IPC: 2.09629 cumulative IPC: 2.07629 (Simulation time: 0 hr 0 min 22 sec) 
Heartbeat CPU 0 instructions: 8000000 cycles: 3883218 heartbeat IPC: 2.11276 cumulative IPC: 2.08143 (Simulation time: 0 hr 0 min 25 sec) 
Heartbeat CPU 0 instructions: 9000001 cycles: 4359591 heartbeat IPC: 2.0992 cumulative IPC: 2.08363 (Simulation time: 0 hr 0 min 28 sec) 
Heartbeat CPU 0 instructions: 10000001 cycles: 4833032 heartbeat IPC: 2.1122 cumulative IPC: 2.08677 (Simulation time: 0 hr 0 min 31 sec) 
Heartbeat CPU 0 instructions: 11000002 cycles: 5309599 heartbeat IPC: 2.09834 cumulative IPC: 2.08792 (Simulation time: 0 hr 0 min 34 sec) 
Finished CPU 0 instructions: 10000001 cycles: 4789460 cummulative IPC: 2.08792 (Simulation time: 0 hr 0 min 34 sec) 

ChampSim completed all CPUs

Region of Interest Statistics

CPU 0 cummulative IPC: 2.08792 instructions: 10000001 cycles: 4789460
LLC TOTAL     ACCESS:        437  HIT:          0  MISS:        437
LLC LOAD      ACCESS:        419  HIT:          0  MISS:        419
LLC RFO       ACCESS:         18  HIT:          0  MISS:         18
LLC PREFETCH  ACCESS:          0  HIT:          0  MISS:          0
LLC WRITEBACK ACCESS:          0  HIT:          0  MISS:          0

*** ChampSim Multicore Out-of-Order Simulator ***

Warmup Instructions: 1000000
Simulation Instructions: 10000000
Configuration: 1
Number of CPUs: 1
LLC sets: 2048
LLC ways: 16
Off-chip DRAM Channels: 1 Width: 64-bit Data Rate: 1600 MT/s

CPU 0 runs /datasets/cs240c-wi22-a00-public/data/Assignment2-gz/calculix_3812B.trace.gz
Heartbeat CPU 0 instructions: 1000001 cycles: 475279 heartbeat IPC: 2.10403 cumulative IPC: 2.10403 (Simulation time: 0 hr 0 min 4 sec) 

Warmup complete CPU 0 instructions: 1000001 cycles: 475279 (Simulation time: 0 hr 0 min 4 sec) 

Heartbeat CPU 0 instructions: 2000001 cycles: 1214236 heartbeat IPC: 1.35326 cumulative IPC: 1.35326 (Simulation time: 0 hr 0 min 8 sec) 
Heartbeat CPU 0 instructions: 3000002 cycles: 1907188 heartbeat IPC: 1.4431 cumulative IPC: 1.39674 (Simulation time: 0 hr 0 min 12 sec) 
Heartbeat CPU 0 instructions: 4000000 cycles: 2605245 heartbeat IPC: 1.43254 cumulative IPC: 1.40847 (Simulation time: 0 hr 0 min 16 sec) 
Heartbeat CPU 0 instructions: 5000000 cycles: 3847110 heartbeat IPC: 0.805241 cumulative IPC: 1.1863 (Simulation time: 0 hr 0 min 20 sec) 
Heartbeat CPU 0 instructions: 6000001 cycles: 4483211 heartbeat IPC: 1.57208 cumulative IPC: 1.24753 (Simulation time: 0 hr 0 min 24 sec) 
Heartbeat CPU 0 instructions: 7000000 cycles: 5041197 heartbeat IPC: 1.79216 cumulative IPC: 1.31408 (Simulation time: 0 hr 0 min 27 sec) 
Heartbeat CPU 0 instructions: 8000000 cycles: 5593827 heartbeat IPC: 1.80953 cumulative IPC: 1.36758 (Simulation time: 0 hr 0 min 31 sec) 
Heartbeat CPU 0 instructions: 9000000 cycles: 6157106 heartbeat IPC: 1.77532 cumulative IPC: 1.408 (Simulation time: 0 hr 0 min 34 sec) 
Heartbeat CPU 0 instructions: 10000001 cycles: 6717696 heartbeat IPC: 1.78384 cumulative IPC: 1.44175 (Simulation time: 0 hr 0 min 38 sec) 
Heartbeat CPU 0 instructions: 11000001 cycles: 7277983 heartbeat IPC: 1.7848 cumulative IPC: 1.47 (Simulation time: 0 hr 0 min 41 sec) 
Finished CPU 0 instructions: 10000000 cycles: 6802704 cummulative IPC: 1.47 (Simulation time: 0 hr 0 min 41 sec) 

ChampSim completed all CPUs

Region of Interest Statistics

CPU 0 cummulative IPC: 1.47 instructions: 10000000 cycles: 6802704
LLC TOTAL     ACCESS:     122143  HIT:     113213  MISS:       8930
LLC LOAD      ACCESS:      73911  HIT:      71025  MISS:       2886
LLC RFO       ACCESS:      16614  HIT:      10570  MISS:       6044
LLC PREFETCH  ACCESS:          0  HIT:          0  MISS:          0
LLC WRITEBACK ACCESS:      31618  HIT:      31618  MISS:          0

*** ChampSim Multicore Out-of-Order Simulator ***

Warmup Instructions: 1000000
Simulation Instructions: 10000000
Configuration: 1
Number of CPUs: 1
LLC sets: 2048
LLC ways: 16
Off-chip DRAM Channels: 1 Width: 64-bit Data Rate: 1600 MT/s

CPU 0 runs /datasets/cs240c-wi22-a00-public/data/Assignment2-gz/gcc_13B.trace.gz
Heartbeat CPU 0 instructions: 1000000 cycles: 644728 heartbeat IPC: 1.55104 cumulative IPC: 1.55104 (Simulation time: 0 hr 0 min 4 sec) 

Warmup complete CPU 0 instructions: 1000001 cycles: 644729 (Simulation time: 0 hr 0 min 4 sec) 

Heartbeat CPU 0 instructions: 2000001 cycles: 4950041 heartbeat IPC: 0.232271 cumulative IPC: 0.232271 (Simulation time: 0 hr 0 min 10 sec) 
Heartbeat CPU 0 instructions: 3000000 cycles: 9694969 heartbeat IPC: 0.210751 cumulative IPC: 0.220988 (Simulation time: 0 hr 0 min 16 sec) 
Heartbeat CPU 0 instructions: 4000000 cycles: 14059957 heartbeat IPC: 0.229096 cumulative IPC: 0.223626 (Simulation time: 0 hr 0 min 22 sec) 
Heartbeat CPU 0 instructions: 5000002 cycles: 18439533 heartbeat IPC: 0.228333 cumulative IPC: 0.224785 (Simulation time: 0 hr 0 min 27 sec) 
Heartbeat CPU 0 instructions: 6000003 cycles: 22823862 heartbeat IPC: 0.228085 cumulative IPC: 0.225437 (Simulation time: 0 hr 0 min 33 sec) 
Heartbeat CPU 0 instructions: 7000002 cycles: 27244114 heartbeat IPC: 0.226231 cumulative IPC: 0.225569 (Simulation time: 0 hr 0 min 39 sec) 
Heartbeat CPU 0 instructions: 8000000 cycles: 31851023 heartbeat IPC: 0.217065 cumulative IPC: 0.224314 (Simulation time: 0 hr 0 min 44 sec) 
Heartbeat CPU 0 instructions: 9000001 cycles: 36730386 heartbeat IPC: 0.204945 cumulative IPC: 0.221695 (Simulation time: 0 hr 0 min 51 sec) 
Heartbeat CPU 0 instructions: 10000002 cycles: 44192104 heartbeat IPC: 0.134018 cumulative IPC: 0.206671 (Simulation time: 0 hr 0 min 58 sec) 
Heartbeat CPU 0 instructions: 11000000 cycles: 52075746 heartbeat IPC: 0.126845 cumulative IPC: 0.194435 (Simulation time: 0 hr 1 min 4 sec) 
Finished CPU 0 instructions: 10000003 cycles: 51431129 cummulative IPC: 0.194435 (Simulation time: 0 hr 1 min 4 sec) 

ChampSim completed all CPUs

Region of Interest Statistics

CPU 0 cummulative IPC: 0.194435 instructions: 10000003 cycles: 51431129
LLC TOTAL     ACCESS:     705691  HIT:     112454  MISS:     593237
LLC LOAD      ACCESS:     289653  HIT:      20645  MISS:     269008
LLC RFO       ACCESS:     168922  HIT:       5635  MISS:     163287
LLC PREFETCH  ACCESS:          0  HIT:          0  MISS:          0
LLC WRITEBACK ACCESS:     247116  HIT:      86174  MISS:     160942

*** ChampSim Multicore Out-of-Order Simulator ***

Warmup Instructions: 1000000
Simulation Instructions: 10000000
Configuration: 1
Number of CPUs: 1
LLC sets: 2048
LLC ways: 16
Off-chip DRAM Channels: 1 Width: 64-bit Data Rate: 1600 MT/s

CPU 0 runs /datasets/cs240c-wi22-a00-public/data/Assignment2-gz/gcc_39B.trace.gz
Heartbeat CPU 0 instructions: 1000000 cycles: 510392 heartbeat IPC: 1.95928 cumulative IPC: 1.95928 (Simulation time: 0 hr 0 min 4 sec) 

Warmup complete CPU 0 instructions: 1000001 cycles: 510393 (Simulation time: 0 hr 0 min 4 sec) 

Heartbeat CPU 0 instructions: 2000002 cycles: 1904269 heartbeat IPC: 0.717425 cumulative IPC: 0.717425 (Simulation time: 0 hr 0 min 9 sec) 
Heartbeat CPU 0 instructions: 3000003 cycles: 3289660 heartbeat IPC: 0.721819 cumulative IPC: 0.719615 (Simulation time: 0 hr 0 min 14 sec) 
Heartbeat CPU 0 instructions: 4000000 cycles: 4657921 heartbeat IPC: 0.730853 cumulative IPC: 0.723322 (Simulation time: 0 hr 0 min 19 sec) 
Heartbeat CPU 0 instructions: 5000003 cycles: 6051661 heartbeat IPC: 0.717496 cumulative IPC: 0.721857 (Simulation time: 0 hr 0 min 24 sec) 
Heartbeat CPU 0 instructions: 6000000 cycles: 7417623 heartbeat IPC: 0.732083 cumulative IPC: 0.723879 (Simulation time: 0 hr 0 min 28 sec) 
Heartbeat CPU 0 instructions: 7000001 cycles: 8808857 heartbeat IPC: 0.718787 cumulative IPC: 0.723025 (Simulation time: 0 hr 0 min 33 sec) 
Heartbeat CPU 0 instructions: 8000000 cycles: 10191708 heartbeat IPC: 0.723143 cumulative IPC: 0.723042 (Simulation time: 0 hr 0 min 38 sec) 
Heartbeat CPU 0 instructions: 9000002 cycles: 11585606 heartbeat IPC: 0.717414 cumulative IPC: 0.722334 (Simulation time: 0 hr 0 min 43 sec) 
Heartbeat CPU 0 instructions: 10000000 cycles: 12969365 heartbeat IPC: 0.722668 cumulative IPC: 0.722371 (Simulation time: 0 hr 0 min 48 sec) 
Heartbeat CPU 0 instructions: 11000002 cycles: 14355530 heartbeat IPC: 0.721416 cumulative IPC: 0.722275 (Simulation time: 0 hr 0 min 53 sec) 
Finished CPU 0 instructions: 10000001 cycles: 13845137 cummulative IPC: 0.722275 (Simulation time: 0 hr 0 min 53 sec) 

ChampSim completed all CPUs

Region of Interest Statistics

CPU 0 cummulative IPC: 0.722275 instructions: 10000001 cycles: 13845137
LLC TOTAL     ACCESS:       2762  HIT:         64  MISS:       2698
LLC LOAD      ACCESS:       2331  HIT:          1  MISS:       2330
LLC RFO       ACCESS:        368  HIT:          0  MISS:        368
LLC PREFETCH  ACCESS:          0  HIT:          0  MISS:          0
LLC WRITEBACK ACCESS:         63  HIT:         63  MISS:          0

*** ChampSim Multicore Out-of-Order Simulator ***

Warmup Instructions: 1000000
Simulation Instructions: 10000000
Configuration: 1
Number of CPUs: 1
LLC sets: 2048
LLC ways: 16
Off-chip DRAM Channels: 1 Width: 64-bit Data Rate: 1600 MT/s

CPU 0 runs /datasets/cs240c-wi22-a00-public/data/Assignment2-gz/gcc_56B.trace.gz
Heartbeat CPU 0 instructions: 1000003 cycles: 954224 heartbeat IPC: 1.04798 cumulative IPC: 1.04798 (Simulation time: 0 hr 0 min 4 sec) 

Warmup complete CPU 0 instructions: 1000003 cycles: 954224 (Simulation time: 0 hr 0 min 4 sec) 

Heartbeat CPU 0 instructions: 2000001 cycles: 2322743 heartbeat IPC: 0.730715 cumulative IPC: 0.730715 (Simulation time: 0 hr 0 min 9 sec) 
Heartbeat CPU 0 instructions: 3000003 cycles: 3662686 heartbeat IPC: 0.746302 cumulative IPC: 0.738426 (Simulation time: 0 hr 0 min 14 sec) 
Heartbeat CPU 0 instructions: 4000000 cycles: 4983204 heartbeat IPC: 0.757276 cumulative IPC: 0.744605 (Simulation time: 0 hr 0 min 18 sec) 
Heartbeat CPU 0 instructions: 5000002 cycles: 6369379 heartbeat IPC: 0.721411 cumulative IPC: 0.738667 (Simulation time: 0 hr 0 min 23 sec) 
Heartbeat CPU 0 instructions: 6000000 cycles: 7758785 heartbeat IPC: 0.719731 cumulative IPC: 0.734801 (Simulation time: 0 hr 0 min 27 sec) 
Heartbeat CPU 0 instructions: 7000000 cycles: 9122705 heartbeat IPC: 0.733181 cumulative IPC: 0.73453 (Simulation time: 0 hr 0 min 32 sec) 
Heartbeat CPU 0 instructions: 8000000 cycles: 10491249 heartbeat IPC: 0.730704 cumulative IPC: 0.733981 (Simulation time: 0 hr 0 min 36 sec) 
Heartbeat CPU 0 instructions: 9000000 cycles: 11822087 heartbeat IPC: 0.751406 cumulative IPC: 0.736115 (Simulation time: 0 hr 0 min 41 sec) 
Heartbeat CPU 0 instructions: 10000002 cycles: 13160465 heartbeat IPC: 0.747175 cumulative IPC: 0.737328 (Simulation time: 0 hr 0 min 45 sec) 
Heartbeat CPU 0 instructions: 11000000 cycles: 14522233 heartbeat IPC: 0.734338 cumulative IPC: 0.737028 (Simulation time: 0 hr 0 min 50 sec) 
Finished CPU 0 instructions: 10000000 cycles: 13568028 cummulative IPC: 0.737027 (Simulation time: 0 hr 0 min 50 sec) 

ChampSim completed all CPUs

Region of Interest Statistics

CPU 0 cummulative IPC: 0.737027 instructions: 10000000 cycles: 13568028
LLC TOTAL     ACCESS:    2149062  HIT:    2143798  MISS:       5264
LLC LOAD      ACCESS:      19447  HIT:      15113  MISS:       4334
LLC RFO       ACCESS:    1061709  HIT:    1060779  MISS:        930
LLC PREFETCH  ACCESS:          0  HIT:          0  MISS:          0
LLC WRITEBACK ACCESS:    1067906  HIT:    1067906  MISS:          0

*** ChampSim Multicore Out-of-Order Simulator ***

Warmup Instructions: 1000000
Simulation Instructions: 10000000
Configuration: 1
Number of CPUs: 1
LLC sets: 2048
LLC ways: 16
Off-chip DRAM Channels: 1 Width: 64-bit Data Rate: 1600 MT/s

CPU 0 runs /datasets/cs240c-wi22-a00-public/data/Assignment2-gz/GemsFDTD_109B.trace.gz
Heartbeat CPU 0 instructions: 1000002 cycles: 577063 heartbeat IPC: 1.73292 cumulative IPC: 1.73292 (Simulation time: 0 hr 0 min 5 sec) 

Warmup complete CPU 0 instructions: 1000002 cycles: 577063 (Simulation time: 0 hr 0 min 5 sec) 

Heartbeat CPU 0 instructions: 2000003 cycles: 3142196 heartbeat IPC: 0.389844 cumulative IPC: 0.389844 (Simulation time: 0 hr 0 min 12 sec) 
Heartbeat CPU 0 instructions: 3000002 cycles: 5769144 heartbeat IPC: 0.38067 cumulative IPC: 0.385202 (Simulation time: 0 hr 0 min 18 sec) 
Heartbeat CPU 0 instructions: 4000000 cycles: 8399989 heartbeat IPC: 0.380105 cumulative IPC: 0.383488 (Simulation time: 0 hr 0 min 25 sec) 
Heartbeat CPU 0 instructions: 5000003 cycles: 10930276 heartbeat IPC: 0.395213 cumulative IPC: 0.386354 (Simulation time: 0 hr 0 min 31 sec) 
Heartbeat CPU 0 instructions: 6000000 cycles: 13451412 heartbeat IPC: 0.396645 cumulative IPC: 0.388369 (Simulation time: 0 hr 0 min 37 sec) 
Heartbeat CPU 0 instructions: 7000001 cycles: 15999671 heartbeat IPC: 0.392425 cumulative IPC: 0.389039 (Simulation time: 0 hr 0 min 44 sec) 
Heartbeat CPU 0 instructions: 8000000 cycles: 18687497 heartbeat IPC: 0.372048 cumulative IPC: 0.386517 (Simulation time: 0 hr 0 min 51 sec) 
Heartbeat CPU 0 instructions: 9000002 cycles: 21304936 heartbeat IPC: 0.382054 cumulative IPC: 0.385954 (Simulation time: 0 hr 0 min 58 sec) 
Heartbeat CPU 0 instructions: 10000003 cycles: 23923260 heartbeat IPC: 0.381924 cumulative IPC: 0.385502 (Simulation time: 0 hr 1 min 4 sec) 
Heartbeat CPU 0 instructions: 11000001 cycles: 26553318 heartbeat IPC: 0.380219 cumulative IPC: 0.384967 (Simulation time: 0 hr 1 min 11 sec) 
Finished CPU 0 instructions: 10000003 cycles: 25976256 cummulative IPC: 0.384967 (Simulation time: 0 hr 1 min 11 sec) 

ChampSim completed all CPUs

Region of Interest Statistics

CPU 0 cummulative IPC: 0.384967 instructions: 10000003 cycles: 25976256
LLC TOTAL     ACCESS:     385448  HIT:      34014  MISS:     351434
LLC LOAD      ACCESS:     250466  HIT:      10915  MISS:     239551
LLC RFO       ACCESS:          0  HIT:          0  MISS:          0
LLC PREFETCH  ACCESS:          0  HIT:          0  MISS:          0
LLC WRITEBACK ACCESS:     134982  HIT:      23099  MISS:     111883

*** ChampSim Multicore Out-of-Order Simulator ***

Warmup Instructions: 1000000
Simulation Instructions: 10000000
Configuration: 1
Number of CPUs: 1
LLC sets: 2048
LLC ways: 16
Off-chip DRAM Channels: 1 Width: 64-bit Data Rate: 1600 MT/s

CPU 0 runs /datasets/cs240c-wi22-a00-public/data/Assignment2-gz/GemsFDTD_712B.trace.gz
Heartbeat CPU 0 instructions: 1000003 cycles: 633083 heartbeat IPC: 1.57958 cumulative IPC: 1.57958 (Simulation time: 0 hr 0 min 5 sec) 

Warmup complete CPU 0 instructions: 1000003 cycles: 633083 (Simulation time: 0 hr 0 min 5 sec) 

Heartbeat CPU 0 instructions: 2000000 cycles: 4130221 heartbeat IPC: 0.285947 cumulative IPC: 0.285947 (Simulation time: 0 hr 0 min 11 sec) 
Heartbeat CPU 0 instructions: 3000000 cycles: 7660277 heartbeat IPC: 0.283282 cumulative IPC: 0.284608 (Simulation time: 0 hr 0 min 17 sec) 
Heartbeat CPU 0 instructions: 4000000 cycles: 10814725 heartbeat IPC: 0.317013 cumulative IPC: 0.294648 (Simulation time: 0 hr 0 min 23 sec) 
Heartbeat CPU 0 instructions: 5000000 cycles: 13932231 heartbeat IPC: 0.320769 cumulative IPC: 0.300771 (Simulation time: 0 hr 0 min 29 sec) 
Heartbeat CPU 0 instructions: 6000002 cycles: 17165803 heartbeat IPC: 0.309256 cumulative IPC: 0.302431 (Simulation time: 0 hr 0 min 35 sec) 
Heartbeat CPU 0 instructions: 7000000 cycles: 20504601 heartbeat IPC: 0.299508 cumulative IPC: 0.30194 (Simulation time: 0 hr 0 min 41 sec) 
Heartbeat CPU 0 instructions: 8000000 cycles: 23764624 heartbeat IPC: 0.306746 cumulative IPC: 0.302617 (Simulation time: 0 hr 0 min 47 sec) 
Heartbeat CPU 0 instructions: 9000002 cycles: 26927553 heartbeat IPC: 0.316163 cumulative IPC: 0.304246 (Simulation time: 0 hr 0 min 53 sec) 
Heartbeat CPU 0 instructions: 10000003 cycles: 30149290 heartbeat IPC: 0.310392 cumulative IPC: 0.304917 (Simulation time: 0 hr 0 min 58 sec) 
Heartbeat CPU 0 instructions: 11000001 cycles: 33487305 heartbeat IPC: 0.299579 cumulative IPC: 0.304375 (Simulation time: 0 hr 1 min 5 sec) 
Finished CPU 0 instructions: 10000002 cycles: 32854223 cummulative IPC: 0.304375 (Simulation time: 0 hr 1 min 5 sec) 

ChampSim completed all CPUs

Region of Interest Statistics

CPU 0 cummulative IPC: 0.304375 instructions: 10000002 cycles: 32854223
LLC TOTAL     ACCESS:     526820  HIT:      71932  MISS:     454888
LLC LOAD      ACCESS:     383181  HIT:      46977  MISS:     336204
LLC RFO       ACCESS:          0  HIT:          0  MISS:          0
LLC PREFETCH  ACCESS:          0  HIT:          0  MISS:          0
LLC WRITEBACK ACCESS:     143639  HIT:      24955  MISS:     118684

*** ChampSim Multicore Out-of-Order Simulator ***

Warmup Instructions: 1000000
Simulation Instructions: 10000000
Configuration: 1
Number of CPUs: 1
LLC sets: 2048
LLC ways: 16
Off-chip DRAM Channels: 1 Width: 64-bit Data Rate: 1600 MT/s

CPU 0 runs /datasets/cs240c-wi22-a00-public/data/Assignment2-gz/GemsFDTD_716B.trace.gz
Heartbeat CPU 0 instructions: 1000000 cycles: 415494 heartbeat IPC: 2.40677 cumulative IPC: 2.40677 (Simulation time: 0 hr 0 min 4 sec) 

Warmup complete CPU 0 instructions: 1000004 cycles: 415495 (Simulation time: 0 hr 0 min 4 sec) 

Heartbeat CPU 0 instructions: 2000003 cycles: 1869841 heartbeat IPC: 0.687596 cumulative IPC: 0.687594 (Simulation time: 0 hr 0 min 9 sec) 
Heartbeat CPU 0 instructions: 3000000 cycles: 3412826 heartbeat IPC: 0.648093 cumulative IPC: 0.667259 (Simulation time: 0 hr 0 min 14 sec) 
Heartbeat CPU 0 instructions: 4000000 cycles: 4665728 heartbeat IPC: 0.798147 cumulative IPC: 0.705843 (Simulation time: 0 hr 0 min 19 sec) 
Heartbeat CPU 0 instructions: 5000000 cycles: 6013763 heartbeat IPC: 0.741821 cumulative IPC: 0.714506 (Simulation time: 0 hr 0 min 24 sec) 
Heartbeat CPU 0 instructions: 6000000 cycles: 7361610 heartbeat IPC: 0.741924 cumulative IPC: 0.719826 (Simulation time: 0 hr 0 min 29 sec) 
Heartbeat CPU 0 instructions: 7000000 cycles: 8709520 heartbeat IPC: 0.741889 cumulative IPC: 0.723412 (Simulation time: 0 hr 0 min 35 sec) 
Heartbeat CPU 0 instructions: 8000000 cycles: 10120870 heartbeat IPC: 0.708541 cumulative IPC: 0.721249 (Simulation time: 0 hr 0 min 40 sec) 
Heartbeat CPU 0 instructions: 9000003 cycles: 13297927 heartbeat IPC: 0.314758 cumulative IPC: 0.621001 (Simulation time: 0 hr 0 min 46 sec) 
Heartbeat CPU 0 instructions: 10000001 cycles: 16806446 heartbeat IPC: 0.28502 cumulative IPC: 0.549083 (Simulation time: 0 hr 0 min 53 sec) 
Heartbeat CPU 0 instructions: 11000000 cycles: 20273482 heartbeat IPC: 0.288431 cumulative IPC: 0.503576 (Simulation time: 0 hr 1 min 0 sec) 
Finished CPU 0 instructions: 10000000 cycles: 19857988 cummulative IPC: 0.503576 (Simulation time: 0 hr 1 min 0 sec) 

ChampSim completed all CPUs

Region of Interest Statistics

CPU 0 cummulative IPC: 0.503576 instructions: 10000000 cycles: 19857988
LLC TOTAL     ACCESS:     216527  HIT:     103263  MISS:     113264
LLC LOAD      ACCESS:     143927  HIT:      44480  MISS:      99447
LLC RFO       ACCESS:      24678  HIT:      10962  MISS:      13716
LLC PREFETCH  ACCESS:          0  HIT:          0  MISS:          0
LLC WRITEBACK ACCESS:      47922  HIT:      47821  MISS:        101

*** ChampSim Multicore Out-of-Order Simulator ***

Warmup Instructions: 1000000
Simulation Instructions: 10000000
Configuration: 1
Number of CPUs: 1
LLC sets: 2048
LLC ways: 16
Off-chip DRAM Channels: 1 Width: 64-bit Data Rate: 1600 MT/s

CPU 0 runs /datasets/cs240c-wi22-a00-public/data/Assignment2-gz/lbm_1004B.trace.gz
Heartbeat CPU 0 instructions: 1000002 cycles: 391495 heartbeat IPC: 2.55432 cumulative IPC: 2.55432 (Simulation time: 0 hr 0 min 4 sec) 

Warmup complete CPU 0 instructions: 1000002 cycles: 391495 (Simulation time: 0 hr 0 min 4 sec) 

Heartbeat CPU 0 instructions: 2000000 cycles: 2134501 heartbeat IPC: 0.57372 cumulative IPC: 0.57372 (Simulation time: 0 hr 0 min 8 sec) 
Heartbeat CPU 0 instructions: 3000000 cycles: 3825164 heartbeat IPC: 0.591484 cumulative IPC: 0.582467 (Simulation time: 0 hr 0 min 12 sec) 
Heartbeat CPU 0 instructions: 4000000 cycles: 5629741 heartbeat IPC: 0.554146 cumulative IPC: 0.57271 (Simulation time: 0 hr 0 min 16 sec) 
Heartbeat CPU 0 instructions: 5000000 cycles: 7281153 heartbeat IPC: 0.605542 cumulative IPC: 0.58058 (Simulation time: 0 hr 0 min 20 sec) 
Heartbeat CPU 0 instructions: 6000002 cycles: 8679366 heartbeat IPC: 0.7152 cumulative IPC: 0.603291 (Simulation time: 0 hr 0 min 23 sec) 
Heartbeat CPU 0 instructions: 7000003 cycles: 10420449 heartbeat IPC: 0.574356 cumulative IPC: 0.598268 (Simulation time: 0 hr 0 min 27 sec) 
Heartbeat CPU 0 instructions: 8000000 cycles: 12092309 heartbeat IPC: 0.598134 cumulative IPC: 0.598249 (Simulation time: 0 hr 0 min 32 sec) 
Heartbeat CPU 0 instructions: 9000001 cycles: 13621348 heartbeat IPC: 0.654006 cumulative IPC: 0.604693 (Simulation time: 0 hr 0 min 36 sec) 
Heartbeat CPU 0 instructions: 10000000 cycles: 15258974 heartbeat IPC: 0.610639 cumulative IPC: 0.605348 (Simulation time: 0 hr 0 min 39 sec) 
Heartbeat CPU 0 instructions: 11000002 cycles: 16999131 heartbeat IPC: 0.574662 cumulative IPC: 0.602133 (Simulation time: 0 hr 0 min 43 sec) 
Finished CPU 0 instructions: 10000000 cycles: 16607636 cummulative IPC: 0.602133 (Simulation time: 0 hr 0 min 43 sec) 

ChampSim completed all CPUs

Region of Interest Statistics

CPU 0 cummulative IPC: 0.602133 instructions: 10000000 cycles: 16607636
LLC TOTAL     ACCESS:     530778  HIT:      99073  MISS:     431705
LLC LOAD      ACCESS:      74000  HIT:          6  MISS:      73994
LLC RFO       ACCESS:     228362  HIT:      30903  MISS:     197459
LLC PREFETCH  ACCESS:          0  HIT:          0  MISS:          0
LLC WRITEBACK ACCESS:     228416  HIT:      68164  MISS:     160252

*** ChampSim Multicore Out-of-Order Simulator ***

Warmup Instructions: 1000000
Simulation Instructions: 10000000
Configuration: 1
Number of CPUs: 1
LLC sets: 2048
LLC ways: 16
Off-chip DRAM Channels: 1 Width: 64-bit Data Rate: 1600 MT/s

CPU 0 runs /datasets/cs240c-wi22-a00-public/data/Assignment2-gz/lbm_564B.trace.gz
Heartbeat CPU 0 instructions: 1000000 cycles: 390238 heartbeat IPC: 2.56254 cumulative IPC: 2.56254 (Simulation time: 0 hr 0 min 3 sec) 

Warmup complete CPU 0 instructions: 1000004 cycles: 390239 (Simulation time: 0 hr 0 min 3 sec) 

Heartbeat CPU 0 instructions: 2000001 cycles: 2203833 heartbeat IPC: 0.551392 cumulative IPC: 0.55139 (Simulation time: 0 hr 0 min 8 sec) 
Heartbeat CPU 0 instructions: 3000002 cycles: 3978916 heartbeat IPC: 0.563354 cumulative IPC: 0.557308 (Simulation time: 0 hr 0 min 12 sec) 
Heartbeat CPU 0 instructions: 4000000 cycles: 5683204 heartbeat IPC: 0.586754 cumulative IPC: 0.566789 (Simulation time: 0 hr 0 min 17 sec) 
Heartbeat CPU 0 instructions: 5000002 cycles: 7416471 heartbeat IPC: 0.576946 cumulative IPC: 0.569295 (Simulation time: 0 hr 0 min 22 sec) 
Heartbeat CPU 0 instructions: 6000002 cycles: 8796247 heartbeat IPC: 0.724755 cumulative IPC: 0.594812 (Simulation time: 0 hr 0 min 26 sec) 
Heartbeat CPU 0 instructions: 7000000 cycles: 10443345 heartbeat IPC: 0.607127 cumulative IPC: 0.59683 (Simulation time: 0 hr 0 min 30 sec) 
Heartbeat CPU 0 instructions: 8000000 cycles: 12168463 heartbeat IPC: 0.57967 cumulative IPC: 0.594317 (Simulation time: 0 hr 0 min 35 sec) 
Heartbeat CPU 0 instructions: 9000000 cycles: 13740053 heartbeat IPC: 0.636298 cumulative IPC: 0.599259 (Simulation time: 0 hr 0 min 38 sec) 
Heartbeat CPU 0 instructions: 10000001 cycles: 15344113 heartbeat IPC: 0.623419 cumulative IPC: 0.601851 (Simulation time: 0 hr 0 min 42 sec) 
Heartbeat CPU 0 instructions: 11000000 cycles: 17057765 heartbeat IPC: 0.583548 cumulative IPC: 0.599969 (Simulation time: 0 hr 0 min 47 sec) 
Finished CPU 0 instructions: 10000000 cycles: 16667527 cummulative IPC: 0.599969 (Simulation time: 0 hr 0 min 47 sec) 

ChampSim completed all CPUs

Region of Interest Statistics

CPU 0 cummulative IPC: 0.599969 instructions: 10000000 cycles: 16667527
LLC TOTAL     ACCESS:     528399  HIT:     102290  MISS:     426109
LLC LOAD      ACCESS:      73999  HIT:          3  MISS:      73996
LLC RFO       ACCESS:     227244  HIT:      30536  MISS:     196708
LLC PREFETCH  ACCESS:          0  HIT:          0  MISS:          0
LLC WRITEBACK ACCESS:     227156  HIT:      71751  MISS:     155405

*** ChampSim Multicore Out-of-Order Simulator ***

Warmup Instructions: 1000000
Simulation Instructions: 10000000
Configuration: 1
Number of CPUs: 1
LLC sets: 2048
LLC ways: 16
Off-chip DRAM Channels: 1 Width: 64-bit Data Rate: 1600 MT/s

CPU 0 runs /datasets/cs240c-wi22-a00-public/data/Assignment2-gz/lbm_94B.trace.gz
Heartbeat CPU 0 instructions: 1000000 cycles: 422411 heartbeat IPC: 2.36736 cumulative IPC: 2.36736 (Simulation time: 0 hr 0 min 4 sec) 

Warmup complete CPU 0 instructions: 1000004 cycles: 422412 (Simulation time: 0 hr 0 min 4 sec) 

Heartbeat CPU 0 instructions: 2000000 cycles: 2214783 heartbeat IPC: 0.55792 cumulative IPC: 0.557918 (Simulation time: 0 hr 0 min 8 sec) 
Heartbeat CPU 0 instructions: 3000000 cycles: 4020954 heartbeat IPC: 0.553657 cumulative IPC: 0.55578 (Simulation time: 0 hr 0 min 13 sec) 
Heartbeat CPU 0 instructions: 4000000 cycles: 6055877 heartbeat IPC: 0.491419 cumulative IPC: 0.532531 (Simulation time: 0 hr 0 min 18 sec) 
Heartbeat CPU 0 instructions: 5000001 cycles: 7495837 heartbeat IPC: 0.694464 cumulative IPC: 0.565497 (Simulation time: 0 hr 0 min 23 sec) 
Heartbeat CPU 0 instructions: 6000000 cycles: 9224757 heartbeat IPC: 0.578395 cumulative IPC: 0.56803 (Simulation time: 0 hr 0 min 28 sec) 
Heartbeat CPU 0 instructions: 7000001 cycles: 11199245 heartbeat IPC: 0.506461 cumulative IPC: 0.55675 (Simulation time: 0 hr 0 min 32 sec) 
Heartbeat CPU 0 instructions: 8000000 cycles: 12732461 heartbeat IPC: 0.652223 cumulative IPC: 0.568641 (Simulation time: 0 hr 0 min 36 sec) 
Heartbeat CPU 0 instructions: 9000003 cycles: 14553832 heartbeat IPC: 0.549039 cumulative IPC: 0.566114 (Simulation time: 0 hr 0 min 41 sec) 
Heartbeat CPU 0 instructions: 10000000 cycles: 16528554 heartbeat IPC: 0.506399 cumulative IPC: 0.558793 (Simulation time: 0 hr 0 min 45 sec) 
Heartbeat CPU 0 instructions: 11000003 cycles: 18263020 heartbeat IPC: 0.576548 cumulative IPC: 0.560519 (Simulation time: 0 hr 0 min 50 sec) 
Finished CPU 0 instructions: 10000003 cycles: 17840609 cummulative IPC: 0.560519 (Simulation time: 0 hr 0 min 50 sec) 

ChampSim completed all CPUs

Region of Interest Statistics

CPU 0 cummulative IPC: 0.560519 instructions: 10000003 cycles: 17840609
LLC TOTAL     ACCESS:     591964  HIT:      94241  MISS:     497723
LLC LOAD      ACCESS:      82913  HIT:         17  MISS:      82896
LLC RFO       ACCESS:     254480  HIT:      31166  MISS:     223314
LLC PREFETCH  ACCESS:          0  HIT:          0  MISS:          0
LLC WRITEBACK ACCESS:     254571  HIT:      63058  MISS:     191513

*** ChampSim Multicore Out-of-Order Simulator ***

Warmup Instructions: 1000000
Simulation Instructions: 10000000
Configuration: 1
Number of CPUs: 1
LLC sets: 2048
LLC ways: 16
Off-chip DRAM Channels: 1 Width: 64-bit Data Rate: 1600 MT/s

CPU 0 runs /datasets/cs240c-wi22-a00-public/data/Assignment2-gz/leslie3d_1116B.trace.gz
Heartbeat CPU 0 instructions: 1000001 cycles: 532936 heartbeat IPC: 1.8764 cumulative IPC: 1.8764 (Simulation time: 0 hr 0 min 5 sec) 

Warmup complete CPU 0 instructions: 1000001 cycles: 532936 (Simulation time: 0 hr 0 min 5 sec) 

Heartbeat CPU 0 instructions: 2000003 cycles: 2176152 heartbeat IPC: 0.608564 cumulative IPC: 0.608564 (Simulation time: 0 hr 0 min 10 sec) 
Heartbeat CPU 0 instructions: 3000002 cycles: 3861601 heartbeat IPC: 0.593313 cumulative IPC: 0.600842 (Simulation time: 0 hr 0 min 15 sec) 
Heartbeat CPU 0 instructions: 4000000 cycles: 5517062 heartbeat IPC: 0.60406 cumulative IPC: 0.601911 (Simulation time: 0 hr 0 min 20 sec) 
Heartbeat CPU 0 instructions: 5000001 cycles: 7148259 heartbeat IPC: 0.613047 cumulative IPC: 0.604657 (Simulation time: 0 hr 0 min 25 sec) 
Heartbeat CPU 0 instructions: 6000001 cycles: 8816656 heartbeat IPC: 0.599378 cumulative IPC: 0.603594 (Simulation time: 0 hr 0 min 30 sec) 
Heartbeat CPU 0 instructions: 7000000 cycles: 10454734 heartbeat IPC: 0.610471 cumulative IPC: 0.604729 (Simulation time: 0 hr 0 min 35 sec) 
Heartbeat CPU 0 instructions: 8000000 cycles: 11995494 heartbeat IPC: 0.64903 cumulative IPC: 0.610684 (Simulation time: 0 hr 0 min 40 sec) 
Heartbeat CPU 0 instructions: 9000003 cycles: 13439983 heartbeat IPC: 0.692288 cumulative IPC: 0.619817 (Simulation time: 0 hr 0 min 45 sec) 
Heartbeat CPU 0 instructions: 10000000 cycles: 14940120 heartbeat IPC: 0.666604 cumulative IPC: 0.624688 (Simulation time: 0 hr 0 min 49 sec) 
Heartbeat CPU 0 instructions: 11000001 cycles: 16471161 heartbeat IPC: 0.653151 cumulative IPC: 0.627422 (Simulation time: 0 hr 0 min 54 sec) 
Finished CPU 0 instructions: 10000000 cycles: 15938225 cummulative IPC: 0.627422 (Simulation time: 0 hr 0 min 54 sec) 

ChampSim completed all CPUs

Region of Interest Statistics

CPU 0 cummulative IPC: 0.627422 instructions: 10000000 cycles: 15938225
LLC TOTAL     ACCESS:     189863  HIT:      30222  MISS:     159641
LLC LOAD      ACCESS:     137104  HIT:      18944  MISS:     118160
LLC RFO       ACCESS:      26204  HIT:         53  MISS:      26151
LLC PREFETCH  ACCESS:          0  HIT:          0  MISS:          0
LLC WRITEBACK ACCESS:      26555  HIT:      11225  MISS:      15330

*** ChampSim Multicore Out-of-Order Simulator ***

Warmup Instructions: 1000000
Simulation Instructions: 10000000
Configuration: 1
Number of CPUs: 1
LLC sets: 2048
LLC ways: 16
Off-chip DRAM Channels: 1 Width: 64-bit Data Rate: 1600 MT/s

CPU 0 runs /datasets/cs240c-wi22-a00-public/data/Assignment2-gz/leslie3d_1186B.trace.gz
Heartbeat CPU 0 instructions: 1000002 cycles: 557793 heartbeat IPC: 1.79278 cumulative IPC: 1.79278 (Simulation time: 0 hr 0 min 4 sec) 

Warmup complete CPU 0 instructions: 1000002 cycles: 557793 (Simulation time: 0 hr 0 min 4 sec) 

Heartbeat CPU 0 instructions: 2000000 cycles: 2580646 heartbeat IPC: 0.49435 cumulative IPC: 0.49435 (Simulation time: 0 hr 0 min 9 sec) 
Heartbeat CPU 0 instructions: 3000000 cycles: 4645944 heartbeat IPC: 0.484192 cumulative IPC: 0.489218 (Simulation time: 0 hr 0 min 14 sec) 
Heartbeat CPU 0 instructions: 4000000 cycles: 6661915 heartbeat IPC: 0.496039 cumulative IPC: 0.491471 (Simulation time: 0 hr 0 min 19 sec) 
Heartbeat CPU 0 instructions: 5000000 cycles: 8773691 heartbeat IPC: 0.473535 cumulative IPC: 0.486861 (Simulation time: 0 hr 0 min 24 sec) 
Heartbeat CPU 0 instructions: 6000000 cycles: 10739159 heartbeat IPC: 0.508785 cumulative IPC: 0.491093 (Simulation time: 0 hr 0 min 29 sec) 
Heartbeat CPU 0 instructions: 7000001 cycles: 12627018 heartbeat IPC: 0.529701 cumulative IPC: 0.497132 (Simulation time: 0 hr 0 min 34 sec) 
Heartbeat CPU 0 instructions: 8000000 cycles: 14569772 heartbeat IPC: 0.514733 cumulative IPC: 0.499572 (Simulation time: 0 hr 0 min 39 sec) 
Heartbeat CPU 0 instructions: 9000003 cycles: 16386685 heartbeat IPC: 0.550386 cumulative IPC: 0.505405 (Simulation time: 0 hr 0 min 44 sec) 
Heartbeat CPU 0 instructions: 10000001 cycles: 18180106 heartbeat IPC: 0.557592 cumulative IPC: 0.510716 (Simulation time: 0 hr 0 min 49 sec) 
Heartbeat CPU 0 instructions: 11000001 cycles: 20099381 heartbeat IPC: 0.52103 cumulative IPC: 0.511729 (Simulation time: 0 hr 0 min 53 sec) 
Finished CPU 0 instructions: 10000003 cycles: 19541589 cummulative IPC: 0.511729 (Simulation time: 0 hr 0 min 53 sec) 

ChampSim completed all CPUs

Region of Interest Statistics

CPU 0 cummulative IPC: 0.511729 instructions: 10000003 cycles: 19541589
LLC TOTAL     ACCESS:     282637  HIT:      91342  MISS:     191295
LLC LOAD      ACCESS:     201267  HIT:      41993  MISS:     159274
LLC RFO       ACCESS:      27093  HIT:      21856  MISS:       5237
LLC PREFETCH  ACCESS:          0  HIT:          0  MISS:          0
LLC WRITEBACK ACCESS:      54277  HIT:      27493  MISS:      26784

*** ChampSim Multicore Out-of-Order Simulator ***

Warmup Instructions: 1000000
Simulation Instructions: 10000000
Configuration: 1
Number of CPUs: 1
LLC sets: 2048
LLC ways: 16
Off-chip DRAM Channels: 1 Width: 64-bit Data Rate: 1600 MT/s

CPU 0 runs /datasets/cs240c-wi22-a00-public/data/Assignment2-gz/leslie3d_94B.trace.gz
Heartbeat CPU 0 instructions: 1000003 cycles: 592147 heartbeat IPC: 1.68877 cumulative IPC: 1.68877 (Simulation time: 0 hr 0 min 5 sec) 

Warmup complete CPU 0 instructions: 1000003 cycles: 592147 (Simulation time: 0 hr 0 min 5 sec) 

Heartbeat CPU 0 instructions: 2000002 cycles: 2650121 heartbeat IPC: 0.485914 cumulative IPC: 0.485914 (Simulation time: 0 hr 0 min 10 sec) 
Heartbeat CPU 0 instructions: 3000002 cycles: 4687245 heartbeat IPC: 0.490888 cumulative IPC: 0.488389 (Simulation time: 0 hr 0 min 16 sec) 
Heartbeat CPU 0 instructions: 4000000 cycles: 6644821 heartbeat IPC: 0.510835 cumulative IPC: 0.495648 (Simulation time: 0 hr 0 min 21 sec) 
Heartbeat CPU 0 instructions: 5000002 cycles: 8802921 heartbeat IPC: 0.463371 cumulative IPC: 0.487165 (Simulation time: 0 hr 0 min 27 sec) 
Heartbeat CPU 0 instructions: 6000000 cycles: 10771191 heartbeat IPC: 0.508059 cumulative IPC: 0.491205 (Simulation time: 0 hr 0 min 32 sec) 
Heartbeat CPU 0 instructions: 7000002 cycles: 12607256 heartbeat IPC: 0.544644 cumulative IPC: 0.499371 (Simulation time: 0 hr 0 min 38 sec) 
Heartbeat CPU 0 instructions: 8000000 cycles: 14566215 heartbeat IPC: 0.510474 cumulative IPC: 0.500928 (Simulation time: 0 hr 0 min 43 sec) 
Heartbeat CPU 0 instructions: 9000000 cycles: 16392748 heartbeat IPC: 0.547485 cumulative IPC: 0.50631 (Simulation time: 0 hr 0 min 48 sec) 
Heartbeat CPU 0 instructions: 10000001 cycles: 18179567 heartbeat IPC: 0.559654 cumulative IPC: 0.511729 (Simulation time: 0 hr 0 min 54 sec) 
Heartbeat CPU 0 instructions: 11000000 cycles: 19942820 heartbeat IPC: 0.567133 cumulative IPC: 0.516778 (Simulation time: 0 hr 0 min 59 sec) 
Finished CPU 0 instructions: 10000001 cycles: 19350684 cummulative IPC: 0.516778 (Simulation time: 0 hr 0 min 59 sec) 

ChampSim completed all CPUs

Region of Interest Statistics

CPU 0 cummulative IPC: 0.516778 instructions: 10000001 cycles: 19350684
LLC TOTAL     ACCESS:     279886  HIT:      96350  MISS:     183536
LLC LOAD      ACCESS:     198530  HIT:      39856  MISS:     158674
LLC RFO       ACCESS:      27904  HIT:      23576  MISS:       4328
LLC PREFETCH  ACCESS:          0  HIT:          0  MISS:          0
LLC WRITEBACK ACCESS:      53452  HIT:      32918  MISS:      20534

*** ChampSim Multicore Out-of-Order Simulator ***

Warmup Instructions: 1000000
Simulation Instructions: 10000000
Configuration: 1
Number of CPUs: 1
LLC sets: 2048
LLC ways: 16
Off-chip DRAM Channels: 1 Width: 64-bit Data Rate: 1600 MT/s

CPU 0 runs /datasets/cs240c-wi22-a00-public/data/Assignment2-gz/libquantum_1210B.trace.gz
Heartbeat CPU 0 instructions: 1000003 cycles: 314916 heartbeat IPC: 3.17546 cumulative IPC: 3.17546 (Simulation time: 0 hr 0 min 2 sec) 

Warmup complete CPU 0 instructions: 1000003 cycles: 314916 (Simulation time: 0 hr 0 min 2 sec) 

Heartbeat CPU 0 instructions: 2000000 cycles: 3442742 heartbeat IPC: 0.31971 cumulative IPC: 0.31971 (Simulation time: 0 hr 0 min 7 sec) 
Heartbeat CPU 0 instructions: 3000000 cycles: 6595678 heartbeat IPC: 0.317165 cumulative IPC: 0.318432 (Simulation time: 0 hr 0 min 11 sec) 
Heartbeat CPU 0 instructions: 4000000 cycles: 9845529 heartbeat IPC: 0.307706 cumulative IPC: 0.314775 (Simulation time: 0 hr 0 min 15 sec) 
Heartbeat CPU 0 instructions: 5000001 cycles: 12969926 heartbeat IPC: 0.320062 cumulative IPC: 0.31608 (Simulation time: 0 hr 0 min 19 sec) 
Heartbeat CPU 0 instructions: 6000001 cycles: 16194979 heartbeat IPC: 0.310072 cumulative IPC: 0.31486 (Simulation time: 0 hr 0 min 22 sec) 
Heartbeat CPU 0 instructions: 7000001 cycles: 19379291 heartbeat IPC: 0.31404 cumulative IPC: 0.314723 (Simulation time: 0 hr 0 min 26 sec) 
Heartbeat CPU 0 instructions: 8000000 cycles: 22578560 heartbeat IPC: 0.312571 cumulative IPC: 0.314414 (Simulation time: 0 hr 0 min 29 sec) 
Heartbeat CPU 0 instructions: 9000002 cycles: 25813004 heartbeat IPC: 0.309173 cumulative IPC: 0.313749 (Simulation time: 0 hr 0 min 33 sec) 
Heartbeat CPU 0 instructions: 10000003 cycles: 28947448 heartbeat IPC: 0.319036 cumulative IPC: 0.314328 (Simulation time: 0 hr 0 min 36 sec) 
Heartbeat CPU 0 instructions: 11000001 cycles: 32206015 heartbeat IPC: 0.306883 cumulative IPC: 0.313567 (Simulation time: 0 hr 0 min 39 sec) 
Finished CPU 0 instructions: 10000000 cycles: 31891101 cummulative IPC: 0.313567 (Simulation time: 0 hr 0 min 39 sec) 

ChampSim completed all CPUs

Region of Interest Statistics

CPU 0 cummulative IPC: 0.313567 instructions: 10000000 cycles: 31891101
LLC TOTAL     ACCESS:     390108  HIT:     127375  MISS:     262733
LLC LOAD      ACCESS:     262733  HIT:          0  MISS:     262733
LLC RFO       ACCESS:          0  HIT:          0  MISS:          0
LLC PREFETCH  ACCESS:          0  HIT:          0  MISS:          0
LLC WRITEBACK ACCESS:     127375  HIT:     127375  MISS:          0

*** ChampSim Multicore Out-of-Order Simulator ***

Warmup Instructions: 1000000
Simulation Instructions: 10000000
Configuration: 1
Number of CPUs: 1
LLC sets: 2048
LLC ways: 16
Off-chip DRAM Channels: 1 Width: 64-bit Data Rate: 1600 MT/s

CPU 0 runs /datasets/cs240c-wi22-a00-public/data/Assignment2-gz/libquantum_1735B.trace.gz
Heartbeat CPU 0 instructions: 1000003 cycles: 333345 heartbeat IPC: 2.9999 cumulative IPC: 2.9999 (Simulation time: 0 hr 0 min 2 sec) 

Warmup complete CPU 0 instructions: 1000003 cycles: 333345 (Simulation time: 0 hr 0 min 2 sec) 

Heartbeat CPU 0 instructions: 2000000 cycles: 2333707 heartbeat IPC: 0.499908 cumulative IPC: 0.499908 (Simulation time: 0 hr 0 min 7 sec) 
Heartbeat CPU 0 instructions: 3000002 cycles: 4686445 heartbeat IPC: 0.425038 cumulative IPC: 0.459442 (Simulation time: 0 hr 0 min 11 sec) 
Heartbeat CPU 0 instructions: 4000000 cycles: 7909815 heartbeat IPC: 0.310234 cumulative IPC: 0.395962 (Simulation time: 0 hr 0 min 14 sec) 
Heartbeat CPU 0 instructions: 5000003 cycles: 11158187 heartbeat IPC: 0.307847 cumulative IPC: 0.36952 (Simulation time: 0 hr 0 min 18 sec) 
Heartbeat CPU 0 instructions: 6000001 cycles: 14388554 heartbeat IPC: 0.309562 cumulative IPC: 0.35574 (Simulation time: 0 hr 0 min 22 sec) 
Heartbeat CPU 0 instructions: 7000002 cycles: 17607719 heartbeat IPC: 0.31064 cumulative IPC: 0.347335 (Simulation time: 0 hr 0 min 25 sec) 
Heartbeat CPU 0 instructions: 8000000 cycles: 20747675 heartbeat IPC: 0.318475 cumulative IPC: 0.342896 (Simulation time: 0 hr 0 min 29 sec) 
Heartbeat CPU 0 instructions: 9000000 cycles: 22756639 heartbeat IPC: 0.497769 cumulative IPC: 0.356772 (Simulation time: 0 hr 0 min 33 sec) 
Heartbeat CPU 0 instructions: 10000002 cycles: 24756868 heartbeat IPC: 0.499944 cumulative IPC: 0.368497 (Simulation time: 0 hr 0 min 37 sec) 
Heartbeat CPU 0 instructions: 11000001 cycles: 26756714 heartbeat IPC: 0.500038 cumulative IPC: 0.378453 (Simulation time: 0 hr 0 min 41 sec) 
Finished CPU 0 instructions: 10000002 cycles: 26423371 cummulative IPC: 0.378453 (Simulation time: 0 hr 0 min 41 sec) 

ChampSim completed all CPUs

Region of Interest Statistics

CPU 0 cummulative IPC: 0.378453 instructions: 10000002 cycles: 26423371
LLC TOTAL     ACCESS:     387654  HIT:        615  MISS:     387039
LLC LOAD      ACCESS:     264062  HIT:          0  MISS:     264062
LLC RFO       ACCESS:          4  HIT:          0  MISS:          4
LLC PREFETCH  ACCESS:          0  HIT:          0  MISS:          0
LLC WRITEBACK ACCESS:     123588  HIT:        615  MISS:     122973

*** ChampSim Multicore Out-of-Order Simulator ***

Warmup Instructions: 1000000
Simulation Instructions: 10000000
Configuration: 1
Number of CPUs: 1
LLC sets: 2048
LLC ways: 16
Off-chip DRAM Channels: 1 Width: 64-bit Data Rate: 1600 MT/s

CPU 0 runs /datasets/cs240c-wi22-a00-public/data/Assignment2-gz/libquantum_964B.trace.gz
Heartbeat CPU 0 instructions: 1000001 cycles: 333344 heartbeat IPC: 2.99991 cumulative IPC: 2.99991 (Simulation time: 0 hr 0 min 2 sec) 

Warmup complete CPU 0 instructions: 1000001 cycles: 333344 (Simulation time: 0 hr 0 min 2 sec) 

Heartbeat CPU 0 instructions: 2000001 cycles: 2331103 heartbeat IPC: 0.500561 cumulative IPC: 0.500561 (Simulation time: 0 hr 0 min 6 sec) 
Heartbeat CPU 0 instructions: 3000000 cycles: 4328403 heartbeat IPC: 0.500675 cumulative IPC: 0.500618 (Simulation time: 0 hr 0 min 10 sec) 
Heartbeat CPU 0 instructions: 4000000 cycles: 6325796 heartbeat IPC: 0.500653 cumulative IPC: 0.50063 (Simulation time: 0 hr 0 min 13 sec) 
Heartbeat CPU 0 instructions: 5000000 cycles: 8323233 heartbeat IPC: 0.500642 cumulative IPC: 0.500633 (Simulation time: 0 hr 0 min 17 sec) 
Heartbeat CPU 0 instructions: 6000002 cycles: 10320629 heartbeat IPC: 0.500653 cumulative IPC: 0.500637 (Simulation time: 0 hr 0 min 21 sec) 
Heartbeat CPU 0 instructions: 7000001 cycles: 12506100 heartbeat IPC: 0.457567 cumulative IPC: 0.492904 (Simulation time: 0 hr 0 min 25 sec) 
Heartbeat CPU 0 instructions: 8000000 cycles: 14796483 heartbeat IPC: 0.436608 cumulative IPC: 0.483989 (Simulation time: 0 hr 0 min 28 sec) 
Heartbeat CPU 0 instructions: 9000001 cycles: 17096479 heartbeat IPC: 0.434784 cumulative IPC: 0.477238 (Simulation time: 0 hr 0 min 32 sec) 
Heartbeat CPU 0 instructions: 10000000 cycles: 19394780 heartbeat IPC: 0.435104 cumulative IPC: 0.472157 (Simulation time: 0 hr 0 min 35 sec) 
Heartbeat CPU 0 instructions: 11000000 cycles: 21696509 heartbeat IPC: 0.434456 cumulative IPC: 0.468095 (Simulation time: 0 hr 0 min 39 sec) 
Finished CPU 0 instructions: 10000001 cycles: 21363166 cummulative IPC: 0.468095 (Simulation time: 0 hr 0 min 39 sec) 

ChampSim completed all CPUs

Region of Interest Statistics

CPU 0 cummulative IPC: 0.468095 instructions: 10000001 cycles: 21363166
LLC TOTAL     ACCESS:     294667  HIT:         93  MISS:     294574
LLC LOAD      ACCESS:     276773  HIT:          0  MISS:     276773
LLC RFO       ACCESS:          4  HIT:          0  MISS:          4
LLC PREFETCH  ACCESS:          0  HIT:          0  MISS:          0
LLC WRITEBACK ACCESS:      17890  HIT:         93  MISS:      17797

*** ChampSim Multicore Out-of-Order Simulator ***

Warmup Instructions: 1000000
Simulation Instructions: 10000000
Configuration: 1
Number of CPUs: 1
LLC sets: 2048
LLC ways: 16
Off-chip DRAM Channels: 1 Width: 64-bit Data Rate: 1600 MT/s

CPU 0 runs /datasets/cs240c-wi22-a00-public/data/Assignment2-gz/mcf_158B.trace.gz
Heartbeat CPU 0 instructions: 1000002 cycles: 496535 heartbeat IPC: 2.01396 cumulative IPC: 2.01396 (Simulation time: 0 hr 0 min 5 sec) 

Warmup complete CPU 0 instructions: 1000002 cycles: 496535 (Simulation time: 0 hr 0 min 5 sec) 

Heartbeat CPU 0 instructions: 2000002 cycles: 13853768 heartbeat IPC: 0.0748658 cumulative IPC: 0.0748658 (Simulation time: 0 hr 0 min 11 sec) 
Heartbeat CPU 0 instructions: 3000000 cycles: 27411899 heartbeat IPC: 0.0737563 cumulative IPC: 0.0743069 (Simulation time: 0 hr 0 min 17 sec) 
Heartbeat CPU 0 instructions: 4000000 cycles: 40610823 heartbeat IPC: 0.0757638 cumulative IPC: 0.0747863 (Simulation time: 0 hr 0 min 23 sec) 
Heartbeat CPU 0 instructions: 5000002 cycles: 52217958 heartbeat IPC: 0.0861541 cumulative IPC: 0.0773374 (Simulation time: 0 hr 0 min 28 sec) 
Heartbeat CPU 0 instructions: 6000001 cycles: 64279619 heartbeat IPC: 0.0829072 cumulative IPC: 0.0783907 (Simulation time: 0 hr 0 min 34 sec) 
Heartbeat CPU 0 instructions: 7000000 cycles: 76370659 heartbeat IPC: 0.0827058 cumulative IPC: 0.0790783 (Simulation time: 0 hr 0 min 39 sec) 
Heartbeat CPU 0 instructions: 8000000 cycles: 88577516 heartbeat IPC: 0.0819212 cumulative IPC: 0.0794723 (Simulation time: 0 hr 0 min 45 sec) 
Heartbeat CPU 0 instructions: 9000000 cycles: 102126052 heartbeat IPC: 0.0738087 cumulative IPC: 0.0787173 (Simulation time: 0 hr 0 min 51 sec) 
Heartbeat CPU 0 instructions: 10000001 cycles: 118595880 heartbeat IPC: 0.0607172 cumulative IPC: 0.076207 (Simulation time: 0 hr 1 min 0 sec) 
Heartbeat CPU 0 instructions: 11000000 cycles: 131589025 heartbeat IPC: 0.0769636 cumulative IPC: 0.076282 (Simulation time: 0 hr 1 min 6 sec) 
Finished CPU 0 instructions: 10000002 cycles: 131092494 cummulative IPC: 0.076282 (Simulation time: 0 hr 1 min 6 sec) 

ChampSim completed all CPUs

Region of Interest Statistics

CPU 0 cummulative IPC: 0.076282 instructions: 10000002 cycles: 131092494
LLC TOTAL     ACCESS:    1469234  HIT:     757018  MISS:     712216
LLC LOAD      ACCESS:    1388119  HIT:     703572  MISS:     684547
LLC RFO       ACCESS:       6447  HIT:       2940  MISS:       3507
LLC PREFETCH  ACCESS:          0  HIT:          0  MISS:          0
LLC WRITEBACK ACCESS:      74668  HIT:      50506  MISS:      24162

*** ChampSim Multicore Out-of-Order Simulator ***

Warmup Instructions: 1000000
Simulation Instructions: 10000000
Configuration: 1
Number of CPUs: 1
LLC sets: 2048
LLC ways: 16
Off-chip DRAM Channels: 1 Width: 64-bit Data Rate: 1600 MT/s

CPU 0 runs /datasets/cs240c-wi22-a00-public/data/Assignment2-gz/mcf_250B.trace.gz
Heartbeat CPU 0 instructions: 1000000 cycles: 527454 heartbeat IPC: 1.8959 cumulative IPC: 1.8959 (Simulation time: 0 hr 0 min 5 sec) 

Warmup complete CPU 0 instructions: 1000004 cycles: 527455 (Simulation time: 0 hr 0 min 5 sec) 

Heartbeat CPU 0 instructions: 2000002 cycles: 14519621 heartbeat IPC: 0.0714687 cumulative IPC: 0.0714684 (Simulation time: 0 hr 0 min 14 sec) 
Heartbeat CPU 0 instructions: 3000002 cycles: 24558445 heartbeat IPC: 0.0996133 cumulative IPC: 0.0832258 (Simulation time: 0 hr 0 min 20 sec) 
Heartbeat CPU 0 instructions: 4000000 cycles: 36783930 heartbeat IPC: 0.0817962 cumulative IPC: 0.0827437 (Simulation time: 0 hr 0 min 27 sec) 
Heartbeat CPU 0 instructions: 5000001 cycles: 47802814 heartbeat IPC: 0.0907534 cumulative IPC: 0.0846106 (Simulation time: 0 hr 0 min 34 sec) 
Heartbeat CPU 0 instructions: 6000000 cycles: 58899847 heartbeat IPC: 0.0901141 cumulative IPC: 0.0856569 (Simulation time: 0 hr 0 min 41 sec) 
Heartbeat CPU 0 instructions: 7000002 cycles: 72235262 heartbeat IPC: 0.0749884 cumulative IPC: 0.0836729 (Simulation time: 0 hr 0 min 48 sec) 
Heartbeat CPU 0 instructions: 8000000 cycles: 84910027 heartbeat IPC: 0.0788968 cumulative IPC: 0.0829555 (Simulation time: 0 hr 0 min 56 sec) 
Heartbeat CPU 0 instructions: 9000000 cycles: 97395320 heartbeat IPC: 0.0800942 cumulative IPC: 0.0825867 (Simulation time: 0 hr 1 min 3 sec) 
Heartbeat CPU 0 instructions: 10000000 cycles: 109415611 heartbeat IPC: 0.0831927 cumulative IPC: 0.0826536 (Simulation time: 0 hr 1 min 9 sec) 
Heartbeat CPU 0 instructions: 11000001 cycles: 121552307 heartbeat IPC: 0.0823948 cumulative IPC: 0.0826276 (Simulation time: 0 hr 1 min 16 sec) 
Finished CPU 0 instructions: 10000000 cycles: 121024854 cummulative IPC: 0.0826277 (Simulation time: 0 hr 1 min 16 sec) 

ChampSim completed all CPUs

Region of Interest Statistics

CPU 0 cummulative IPC: 0.0826277 instructions: 10000000 cycles: 121024854
LLC TOTAL     ACCESS:    1427518  HIT:     742354  MISS:     685164
LLC LOAD      ACCESS:    1374748  HIT:     715187  MISS:     659561
LLC RFO       ACCESS:       2527  HIT:       1132  MISS:       1395
LLC PREFETCH  ACCESS:          0  HIT:          0  MISS:          0
LLC WRITEBACK ACCESS:      50243  HIT:      26035  MISS:      24208

*** ChampSim Multicore Out-of-Order Simulator ***

Warmup Instructions: 1000000
Simulation Instructions: 10000000
Configuration: 1
Number of CPUs: 1
LLC sets: 2048
LLC ways: 16
Off-chip DRAM Channels: 1 Width: 64-bit Data Rate: 1600 MT/s

CPU 0 runs /datasets/cs240c-wi22-a00-public/data/Assignment2-gz/mcf_46B.trace.gz
Heartbeat CPU 0 instructions: 1000002 cycles: 482155 heartbeat IPC: 2.07403 cumulative IPC: 2.07403 (Simulation time: 0 hr 0 min 4 sec) 

Warmup complete CPU 0 instructions: 1000002 cycles: 482155 (Simulation time: 0 hr 0 min 4 sec) 

Heartbeat CPU 0 instructions: 2000002 cycles: 6016840 heartbeat IPC: 0.180679 cumulative IPC: 0.180679 (Simulation time: 0 hr 0 min 10 sec) 
Heartbeat CPU 0 instructions: 3000000 cycles: 18373038 heartbeat IPC: 0.0809309 cumulative IPC: 0.111789 (Simulation time: 0 hr 0 min 17 sec) 
Heartbeat CPU 0 instructions: 4000000 cycles: 28973101 heartbeat IPC: 0.0943391 cumulative IPC: 0.105297 (Simulation time: 0 hr 0 min 24 sec) 
Heartbeat CPU 0 instructions: 5000001 cycles: 33947127 heartbeat IPC: 0.201045 cumulative IPC: 0.119528 (Simulation time: 0 hr 0 min 28 sec) 
Heartbeat CPU 0 instructions: 6000003 cycles: 40945308 heartbeat IPC: 0.142895 cumulative IPC: 0.123569 (Simulation time: 0 hr 0 min 34 sec) 
Heartbeat CPU 0 instructions: 7000000 cycles: 55526662 heartbeat IPC: 0.0685805 cumulative IPC: 0.109003 (Simulation time: 0 hr 0 min 42 sec) 
Heartbeat CPU 0 instructions: 8000000 cycles: 60599360 heartbeat IPC: 0.197134 cumulative IPC: 0.116439 (Simulation time: 0 hr 0 min 47 sec) 
Heartbeat CPU 0 instructions: 9000001 cycles: 65339689 heartbeat IPC: 0.210956 cumulative IPC: 0.123347 (Simulation time: 0 hr 0 min 52 sec) 
Heartbeat CPU 0 instructions: 10000001 cycles: 78856039 heartbeat IPC: 0.0739845 cumulative IPC: 0.114834 (Simulation time: 0 hr 1 min 0 sec) 
Heartbeat CPU 0 instructions: 11000002 cycles: 90478131 heartbeat IPC: 0.0860431 cumulative IPC: 0.111116 (Simulation time: 0 hr 1 min 7 sec) 
Finished CPU 0 instructions: 10000000 cycles: 89995976 cummulative IPC: 0.111116 (Simulation time: 0 hr 1 min 7 sec) 

ChampSim completed all CPUs

Region of Interest Statistics

CPU 0 cummulative IPC: 0.111116 instructions: 10000000 cycles: 89995976
LLC TOTAL     ACCESS:    1127565  HIT:     479565  MISS:     648000
LLC LOAD      ACCESS:     893216  HIT:     342163  MISS:     551053
LLC RFO       ACCESS:      19581  HIT:      12176  MISS:       7405
LLC PREFETCH  ACCESS:          0  HIT:          0  MISS:          0
LLC WRITEBACK ACCESS:     214768  HIT:     125226  MISS:      89542

*** ChampSim Multicore Out-of-Order Simulator ***

Warmup Instructions: 1000000
Simulation Instructions: 10000000
Configuration: 1
Number of CPUs: 1
LLC sets: 2048
LLC ways: 16
Off-chip DRAM Channels: 1 Width: 64-bit Data Rate: 1600 MT/s

CPU 0 runs /datasets/cs240c-wi22-a00-public/data/Assignment2-gz/milc_360B.trace.gz
Heartbeat CPU 0 instructions: 1000001 cycles: 549889 heartbeat IPC: 1.81855 cumulative IPC: 1.81855 (Simulation time: 0 hr 0 min 3 sec) 

Warmup complete CPU 0 instructions: 1000001 cycles: 549889 (Simulation time: 0 hr 0 min 3 sec) 

Heartbeat CPU 0 instructions: 2000003 cycles: 2533059 heartbeat IPC: 0.504244 cumulative IPC: 0.504244 (Simulation time: 0 hr 0 min 8 sec) 
Heartbeat CPU 0 instructions: 3000001 cycles: 4486267 heartbeat IPC: 0.511977 cumulative IPC: 0.508081 (Simulation time: 0 hr 0 min 12 sec) 
Heartbeat CPU 0 instructions: 4000000 cycles: 6463775 heartbeat IPC: 0.505686 cumulative IPC: 0.50728 (Simulation time: 0 hr 0 min 16 sec) 
Heartbeat CPU 0 instructions: 5000002 cycles: 8432385 heartbeat IPC: 0.507974 cumulative IPC: 0.507454 (Simulation time: 0 hr 0 min 20 sec) 
Heartbeat CPU 0 instructions: 6000001 cycles: 10379093 heartbeat IPC: 0.513687 cumulative IPC: 0.508688 (Simulation time: 0 hr 0 min 24 sec) 
Heartbeat CPU 0 instructions: 7000000 cycles: 12320517 heartbeat IPC: 0.515085 cumulative IPC: 0.509743 (Simulation time: 0 hr 0 min 28 sec) 
Heartbeat CPU 0 instructions: 8000000 cycles: 14265833 heartbeat IPC: 0.514055 cumulative IPC: 0.510355 (Simulation time: 0 hr 0 min 33 sec) 
Heartbeat CPU 0 instructions: 9000001 cycles: 16229146 heartbeat IPC: 0.509344 cumulative IPC: 0.510228 (Simulation time: 0 hr 0 min 37 sec) 
Heartbeat CPU 0 instructions: 10000003 cycles: 18198501 heartbeat IPC: 0.507782 cumulative IPC: 0.509955 (Simulation time: 0 hr 0 min 41 sec) 
Heartbeat CPU 0 instructions: 11000001 cycles: 20144759 heartbeat IPC: 0.513805 cumulative IPC: 0.510338 (Simulation time: 0 hr 0 min 44 sec) 
Finished CPU 0 instructions: 10000000 cycles: 19594870 cummulative IPC: 0.510338 (Simulation time: 0 hr 0 min 44 sec) 

ChampSim completed all CPUs

Region of Interest Statistics

CPU 0 cummulative IPC: 0.510338 instructions: 10000000 cycles: 19594870
LLC TOTAL     ACCESS:     224140  HIT:      68968  MISS:     155172
LLC LOAD      ACCESS:     155172  HIT:          0  MISS:     155172
LLC RFO       ACCESS:          0  HIT:          0  MISS:          0
LLC PREFETCH  ACCESS:          0  HIT:          0  MISS:          0
LLC WRITEBACK ACCESS:      68968  HIT:      68968  MISS:          0

*** ChampSim Multicore Out-of-Order Simulator ***

Warmup Instructions: 1000000
Simulation Instructions: 10000000
Configuration: 1
Number of CPUs: 1
LLC sets: 2048
LLC ways: 16
Off-chip DRAM Channels: 1 Width: 64-bit Data Rate: 1600 MT/s

CPU 0 runs /datasets/cs240c-wi22-a00-public/data/Assignment2-gz/milc_409B.trace.gz
Heartbeat CPU 0 instructions: 1000000 cycles: 402731 heartbeat IPC: 2.48305 cumulative IPC: 2.48305 (Simulation time: 0 hr 0 min 4 sec) 

[...]

Warmup complete CPU 0 instructions: 1000003 cycles: 338265 (Simulation time: 0 hr 0 min 3 sec) 

Heartbeat CPU 0 instructions: 2000000 cycles: 2897549 heartbeat IPC: 0.390733 cumulative IPC: 0.390733 (Simulation time: 0 hr 0 min 6 sec) 
Heartbeat CPU 0 instructions: 3000003 cycles: 4428133 heartbeat IPC: 0.653347 cumulative IPC: 0.489013 (Simulation time: 0 hr 0 min 10 sec) 
Heartbeat CPU 0 instructions: 4000000 cycles: 6057396 heartbeat IPC: 0.613773 cumulative IPC: 0.524555 (Simulation time: 0 hr 0 min 13 sec) 
Heartbeat CPU 0 instructions: 5000002 cycles: 8225264 heartbeat IPC: 0.461284 cumulative IPC: 0.507164 (Simulation time: 0 hr 0 min 17 sec) 
Heartbeat CPU 0 instructions: 6000002 cycles: 9863571 heartbeat IPC: 0.610386 cumulative IPC: 0.524917 (Simulation time: 0 hr 0 min 20 sec) 
Heartbeat CPU 0 instructions: 7000000 cycles: 11479630 heartbeat IPC: 0.618788 cumulative IPC: 0.538533 (Simulation time: 0 hr 0 min 24 sec) 
Heartbeat CPU 0 instructions: 8000000 cycles: 13163691 heartbeat IPC: 0.593803 cumulative IPC: 0.545791 (Simulation time: 0 hr 0 min 28 sec) 
Heartbeat CPU 0 instructions: 9000001 cycles: 14683333 heartbeat IPC: 0.65805 cumulative IPC: 0.557683 (Simulation time: 0 hr 0 min 32 sec) 
Heartbeat CPU 0 instructions: 10000003 cycles: 16184222 heartbeat IPC: 0.666273 cumulative IPC: 0.567968 (Simulation time: 0 hr 0 min 36 sec) 
Heartbeat CPU 0 instructions: 11000000 cycles: 17703057 heartbeat IPC: 0.658397 cumulative IPC: 0.575878 (Simulation time: 0 hr 0 min 40 sec) 
Finished CPU 0 instructions: 10000001 cycles: 17364793 cummulative IPC: 0.575878 (Simulation time: 0 hr 0 min 40 sec) 

ChampSim completed all CPUs

Region of Interest Statistics

CPU 0 cummulative IPC: 0.575878 instructions: 10000001 cycles: 17364793
LLC TOTAL     ACCESS:     152838  HIT:      40171  MISS:     112667
LLC LOAD      ACCESS:     127391  HIT:      20320  MISS:     107071
LLC RFO       ACCESS:      11896  HIT:       6300  MISS:       5596
LLC PREFETCH  ACCESS:          0  HIT:          0  MISS:          0
LLC WRITEBACK ACCESS:      13551  HIT:      13551  MISS:          0

*** ChampSim Multicore Out-of-Order Simulator ***

Warmup Instructions: 1000000
Simulation Instructions: 10000000
Configuration: 1
Number of CPUs: 1
LLC sets: 2048
LLC ways: 16
Off-chip DRAM Channels: 1 Width: 64-bit Data Rate: 1600 MT/s

CPU 0 runs /datasets/cs240c-wi22-a00-public/data/Assignment2-gz/sphinx3_883B.trace.gz
Heartbeat CPU 0 instructions: 1000003 cycles: 413061 heartbeat IPC: 2.42096 cumulative IPC: 2.42096 (Simulation time: 0 hr 0 min 4 sec) 

Warmup complete CPU 0 instructions: 1000003 cycles: 413061 (Simulation time: 0 hr 0 min 4 sec) 

Heartbeat CPU 0 instructions: 2000002 cycles: 2975351 heartbeat IPC: 0.390276 cumulative IPC: 0.390276 (Simulation time: 0 hr 0 min 8 sec) 
Heartbeat CPU 0 instructions: 3000001 cycles: 4965470 heartbeat IPC: 0.502482 cumulative IPC: 0.439327 (Simulation time: 0 hr 0 min 11 sec) 
Heartbeat CPU 0 instructions: 4000000 cycles: 6666706 heartbeat IPC: 0.587807 cumulative IPC: 0.47972 (Simulation time: 0 hr 0 min 15 sec) 
Heartbeat CPU 0 instructions: 5000000 cycles: 8563413 heartbeat IPC: 0.52723 cumulative IPC: 0.490776 (Simulation time: 0 hr 0 min 18 sec) 
Heartbeat CPU 0 instructions: 6000000 cycles: 11155442 heartbeat IPC: 0.385798 cumulative IPC: 0.465446 (Simulation time: 0 hr 0 min 22 sec) 
Heartbeat CPU 0 instructions: 7000000 cycles: 13601866 heartbeat IPC: 0.40876 cumulative IPC: 0.454931 (Simulation time: 0 hr 0 min 25 sec) 
Heartbeat CPU 0 instructions: 8000000 cycles: 15254183 heartbeat IPC: 0.605211 cumulative IPC: 0.471662 (Simulation time: 0 hr 0 min 29 sec) 
Heartbeat CPU 0 instructions: 9000000 cycles: 16350994 heartbeat IPC: 0.911734 cumulative IPC: 0.501947 (Simulation time: 0 hr 0 min 32 sec) 
Heartbeat CPU 0 instructions: 10000000 cycles: 17505522 heartbeat IPC: 0.866155 cumulative IPC: 0.526548 (Simulation time: 0 hr 0 min 36 sec) 
Heartbeat CPU 0 instructions: 11000002 cycles: 19966726 heartbeat IPC: 0.406306 cumulative IPC: 0.511413 (Simulation time: 0 hr 0 min 40 sec) 
Finished CPU 0 instructions: 10000003 cycles: 19553666 cummulative IPC: 0.511413 (Simulation time: 0 hr 0 min 40 sec) 

ChampSim completed all CPUs

Region of Interest Statistics

CPU 0 cummulative IPC: 0.511413 instructions: 10000003 cycles: 19553666
LLC TOTAL     ACCESS:     165586  HIT:      55121  MISS:     110465
LLC LOAD      ACCESS:     144384  HIT:      39518  MISS:     104866
LLC RFO       ACCESS:       8238  HIT:       4151  MISS:       4087
LLC PREFETCH  ACCESS:          0  HIT:          0  MISS:          0
LLC WRITEBACK ACCESS:      12964  HIT:      11452  MISS:       1512

*** ChampSim Multicore Out-of-Order Simulator ***

Warmup Instructions: 1000000
Simulation Instructions: 10000000
Configuration: 1
Number of CPUs: 1
LLC sets: 2048
LLC ways: 16
Off-chip DRAM Channels: 1 Width: 64-bit Data Rate: 1600 MT/s

CPU 0 runs /datasets/cs240c-wi22-a00-public/data/Assignment2-gz/wrf_1212B.trace.gz
Heartbeat CPU 0 instructions: 1000001 cycles: 599253 heartbeat IPC: 1.66875 cumulative IPC: 1.66875 (Simulation time: 0 hr 0 min 4 sec) 

Warmup complete CPU 0 instructions: 1000001 cycles: 599253 (Simulation time: 0 hr 0 min 4 sec) 

Heartbeat CPU 0 instructions: 2000000 cycles: 2423302 heartbeat IPC: 0.54823 cumulative IPC: 0.54823 (Simulation time: 0 hr 0 min 9 sec) 
Heartbeat CPU 0 instructions: 3000001 cycles: 4219232 heartbeat IPC: 0.556815 cumulative IPC: 0.552489 (Simulation time: 0 hr 0 min 14 sec) 
Heartbeat CPU 0 instructions: 4000000 cycles: 6048098 heartbeat IPC: 0.546786 cumulative IPC: 0.550575 (Simulation time: 0 hr 0 min 19 sec) 
Heartbeat CPU 0 instructions: 5000000 cycles: 7875765 heartbeat IPC: 0.547146 cumulative IPC: 0.549714 (Simulation time: 0 hr 0 min 24 sec) 
Heartbeat CPU 0 instructions: 6000001 cycles: 9692657 heartbeat IPC: 0.550391 cumulative IPC: 0.549849 (Simulation time: 0 hr 0 min 28 sec) 
Heartbeat CPU 0 instructions: 7000001 cycles: 11482035 heartbeat IPC: 0.558853 cumulative IPC: 0.55133 (Simulation time: 0 hr 0 min 32 sec) 
Heartbeat CPU 0 instructions: 8000000 cycles: 13312874 heartbeat IPC: 0.546197 cumulative IPC: 0.550591 (Simulation time: 0 hr 0 min 37 sec) 
Heartbeat CPU 0 instructions: 9000002 cycles: 15137287 heartbeat IPC: 0.548123 cumulative IPC: 0.550281 (Simulation time: 0 hr 0 min 41 sec) 
Heartbeat CPU 0 instructions: 10000000 cycles: 16963532 heartbeat IPC: 0.547571 cumulative IPC: 0.549978 (Simulation time: 0 hr 0 min 46 sec) 
Heartbeat CPU 0 instructions: 11000003 cycles: 18738139 heartbeat IPC: 0.563507 cumulative IPC: 0.551302 (Simulation time: 0 hr 0 min 50 sec) 
Finished CPU 0 instructions: 10000002 cycles: 18138886 cummulative IPC: 0.551302 (Simulation time: 0 hr 0 min 50 sec) 

ChampSim completed all CPUs

Region of Interest Statistics

CPU 0 cummulative IPC: 0.551302 instructions: 10000002 cycles: 18138886
LLC TOTAL     ACCESS:      11674  HIT:       3201  MISS:       8473
LLC LOAD      ACCESS:       8711  HIT:        343  MISS:       8368
LLC RFO       ACCESS:        115  HIT:         10  MISS:        105
LLC PREFETCH  ACCESS:          0  HIT:          0  MISS:          0
LLC WRITEBACK ACCESS:       2848  HIT:       2848  MISS:          0

*** ChampSim Multicore Out-of-Order Simulator ***

Warmup Instructions: 1000000
Simulation Instructions: 10000000
Configuration: 1
Number of CPUs: 1
LLC sets: 2048
LLC ways: 16
Off-chip DRAM Channels: 1 Width: 64-bit Data Rate: 1600 MT/s

CPU 0 runs /datasets/cs240c-wi22-a00-public/data/Assignment2-gz/wrf_1228B.trace.gz
Heartbeat CPU 0 instructions: 1000003 cycles: 590333 heartbeat IPC: 1.69396 cumulative IPC: 1.69396 (Simulation time: 0 hr 0 min 4 sec) 

Warmup complete CPU 0 instructions: 1000003 cycles: 590333 (Simulation time: 0 hr 0 min 4 sec) 

Heartbeat CPU 0 instructions: 2000000 cycles: 4038550 heartbeat IPC: 0.290004 cumulative IPC: 0.290004 (Simulation time: 0 hr 0 min 10 sec) 
Heartbeat CPU 0 instructions: 3000000 cycles: 6498287 heartbeat IPC: 0.406548 cumulative IPC: 0.338526 (Simulation time: 0 hr 0 min 15 sec) 
Heartbeat CPU 0 instructions: 4000000 cycles: 8733518 heartbeat IPC: 0.447381 cumulative IPC: 0.368406 (Simulation time: 0 hr 0 min 20 sec) 
Heartbeat CPU 0 instructions: 5000000 cycles: 11150031 heartbeat IPC: 0.413819 cumulative IPC: 0.378798 (Simulation time: 0 hr 0 min 25 sec) 
Heartbeat CPU 0 instructions: 6000002 cycles: 12957874 heartbeat IPC: 0.553146 cumulative IPC: 0.404284 (Simulation time: 0 hr 0 min 29 sec) 
Heartbeat CPU 0 instructions: 7000001 cycles: 14783776 heartbeat IPC: 0.547674 cumulative IPC: 0.42273 (Simulation time: 0 hr 0 min 34 sec) 
Heartbeat CPU 0 instructions: 8000000 cycles: 16574755 heartbeat IPC: 0.558353 cumulative IPC: 0.437926 (Simulation time: 0 hr 0 min 38 sec) 
Heartbeat CPU 0 instructions: 9000001 cycles: 18245420 heartbeat IPC: 0.598565 cumulative IPC: 0.453127 (Simulation time: 0 hr 0 min 43 sec) 
Heartbeat CPU 0 instructions: 10000001 cycles: 19938490 heartbeat IPC: 0.590643 cumulative IPC: 0.46516 (Simulation time: 0 hr 0 min 47 sec) 
Heartbeat CPU 0 instructions: 11000003 cycles: 21591122 heartbeat IPC: 0.605097 cumulative IPC: 0.476173 (Simulation time: 0 hr 0 min 51 sec) 
Finished CPU 0 instructions: 10000000 cycles: 21000789 cummulative IPC: 0.476173 (Simulation time: 0 hr 0 min 51 sec) 

ChampSim completed all CPUs

Region of Interest Statistics

CPU 0 cummulative IPC: 0.476173 instructions: 10000000 cycles: 21000789
LLC TOTAL     ACCESS:     339699  HIT:      90224  MISS:     249475
LLC LOAD      ACCESS:     175130  HIT:       8052  MISS:     167078
LLC RFO       ACCESS:      59708  HIT:         58  MISS:      59650
LLC PREFETCH  ACCESS:          0  HIT:          0  MISS:          0
LLC WRITEBACK ACCESS:     104861  HIT:      82114  MISS:      22747

*** ChampSim Multicore Out-of-Order Simulator ***

Warmup Instructions: 1000000
Simulation Instructions: 10000000
Configuration: 1
Number of CPUs: 1
LLC sets: 2048
LLC ways: 16
Off-chip DRAM Channels: 1 Width: 64-bit Data Rate: 1600 MT/s

CPU 0 runs /datasets/cs240c-wi22-a00-public/data/Assignment2-gz/wrf_1650B.trace.gz
Heartbeat CPU 0 instructions: 1000000 cycles: 514412 heartbeat IPC: 1.94397 cumulative IPC: 1.94397 (Simulation time: 0 hr 0 min 3 sec) 

Warmup complete CPU 0 instructions: 1000003 cycles: 514413 (Simulation time: 0 hr 0 min 3 sec) 

Heartbeat CPU 0 instructions: 2000000 cycles: 2136198 heartbeat IPC: 0.616604 cumulative IPC: 0.616603 (Simulation time: 0 hr 0 min 8 sec) 
Heartbeat CPU 0 instructions: 3000001 cycles: 3776793 heartbeat IPC: 0.609536 cumulative IPC: 0.613049 (Simulation time: 0 hr 0 min 13 sec) 
Heartbeat CPU 0 instructions: 4000000 cycles: 5426812 heartbeat IPC: 0.606053 cumulative IPC: 0.610699 (Simulation time: 0 hr 0 min 17 sec) 
Heartbeat CPU 0 instructions: 5000001 cycles: 7059416 heartbeat IPC: 0.612519 cumulative IPC: 0.611153 (Simulation time: 0 hr 0 min 22 sec) 
Heartbeat CPU 0 instructions: 6000003 cycles: 8692293 heartbeat IPC: 0.612417 cumulative IPC: 0.611405 (Simulation time: 0 hr 0 min 26 sec) 
Heartbeat CPU 0 instructions: 7000000 cycles: 10317953 heartbeat IPC: 0.615133 cumulative IPC: 0.612024 (Simulation time: 0 hr 0 min 30 sec) 
Heartbeat CPU 0 instructions: 8000000 cycles: 11940708 heartbeat IPC: 0.616236 cumulative IPC: 0.612622 (Simulation time: 0 hr 0 min 35 sec) 
Heartbeat CPU 0 instructions: 9000001 cycles: 13557337 heartbeat IPC: 0.618572 cumulative IPC: 0.613359 (Simulation time: 0 hr 0 min 39 sec) 
Heartbeat CPU 0 instructions: 10000001 cycles: 15166081 heartbeat IPC: 0.621603 cumulative IPC: 0.614264 (Simulation time: 0 hr 0 min 44 sec) 
Heartbeat CPU 0 instructions: 11000000 cycles: 16775589 heartbeat IPC: 0.621307 cumulative IPC: 0.614962 (Simulation time: 0 hr 0 min 48 sec) 
Finished CPU 0 instructions: 10000001 cycles: 16261177 cummulative IPC: 0.614962 (Simulation time: 0 hr 0 min 48 sec) 

ChampSim completed all CPUs

Region of Interest Statistics

CPU 0 cummulative IPC: 0.614962 instructions: 10000001 cycles: 16261177
LLC TOTAL     ACCESS:      18424  HIT:       3585  MISS:      14839
LLC LOAD      ACCESS:      10668  HIT:          4  MISS:      10664
LLC RFO       ACCESS:       4175  HIT:          0  MISS:       4175
LLC PREFETCH  ACCESS:          0  HIT:          0  MISS:          0
LLC WRITEBACK ACCESS:       3581  HIT:       3581  MISS:          0

*** ChampSim Multicore Out-of-Order Simulator ***

Warmup Instructions: 1000000
Simulation Instructions: 10000000
Configuration: 1
Number of CPUs: 1
LLC sets: 2048
LLC ways: 16
Off-chip DRAM Channels: 1 Width: 64-bit Data Rate: 1600 MT/s

CPU 0 runs /datasets/cs240c-wi22-a00-public/data/Assignment2-gz/zeusmp_100B.trace.gz
Heartbeat CPU 0 instructions: 1000002 cycles: 464468 heartbeat IPC: 2.15301 cumulative IPC: 2.15301 (Simulation time: 0 hr 0 min 4 sec) 

Warmup complete CPU 0 instructions: 1000002 cycles: 464468 (Simulation time: 0 hr 0 min 4 sec) 

Heartbeat CPU 0 instructions: 2000002 cycles: 1384735 heartbeat IPC: 1.08664 cumulative IPC: 1.08664 (Simulation time: 0 hr 0 min 8 sec) 
Heartbeat CPU 0 instructions: 3000000 cycles: 2303891 heartbeat IPC: 1.08795 cumulative IPC: 1.0873 (Simulation time: 0 hr 0 min 11 sec) 
Heartbeat CPU 0 instructions: 4000000 cycles: 3222613 heartbeat IPC: 1.08847 cumulative IPC: 1.08769 (Simulation time: 0 hr 0 min 15 sec) 
Heartbeat CPU 0 instructions: 5000003 cycles: 4158149 heartbeat IPC: 1.06891 cumulative IPC: 1.08293 (Simulation time: 0 hr 0 min 18 sec) 
Heartbeat CPU 0 instructions: 6000001 cycles: 5080047 heartbeat IPC: 1.08472 cumulative IPC: 1.08329 (Simulation time: 0 hr 0 min 22 sec) 
Heartbeat CPU 0 instructions: 7000001 cycles: 6002717 heartbeat IPC: 1.08381 cumulative IPC: 1.08337 (Simulation time: 0 hr 0 min 26 sec) 
Heartbeat CPU 0 instructions: 8000000 cycles: 6924931 heartbeat IPC: 1.08435 cumulative IPC: 1.08351 (Simulation time: 0 hr 0 min 29 sec) 
Heartbeat CPU 0 instructions: 9000001 cycles: 7866273 heartbeat IPC: 1.06231 cumulative IPC: 1.08082 (Simulation time: 0 hr 0 min 33 sec) 
Heartbeat CPU 0 instructions: 10000002 cycles: 8787280 heartbeat IPC: 1.08577 cumulative IPC: 1.08137 (Simulation time: 0 hr 0 min 36 sec) 
Heartbeat CPU 0 instructions: 11000000 cycles: 9710545 heartbeat IPC: 1.08311 cumulative IPC: 1.08154 (Simulation time: 0 hr 0 min 40 sec) 
Finished CPU 0 instructions: 10000002 cycles: 9246078 cummulative IPC: 1.08154 (Simulation time: 0 hr 0 min 40 sec) 

ChampSim completed all CPUs

Region of Interest Statistics

CPU 0 cummulative IPC: 1.08154 instructions: 10000002 cycles: 9246078
LLC TOTAL     ACCESS:      53709  HIT:      14874  MISS:      38835
LLC LOAD      ACCESS:      29862  HIT:       2062  MISS:      27800
LLC RFO       ACCESS:      11735  HIT:        738  MISS:      10997
LLC PREFETCH  ACCESS:          0  HIT:          0  MISS:          0
LLC WRITEBACK ACCESS:      12112  HIT:      12074  MISS:         38

*** ChampSim Multicore Out-of-Order Simulator ***

Warmup Instructions: 1000000
Simulation Instructions: 10000000
Configuration: 1
Number of CPUs: 1
LLC sets: 2048
LLC ways: 16
Off-chip DRAM Channels: 1 Width: 64-bit Data Rate: 1600 MT/s

CPU 0 runs /datasets/cs240c-wi22-a00-public/data/Assignment2-gz/zeusmp_300B.trace.gz
Heartbeat CPU 0 instructions: 1000003 cycles: 508391 heartbeat IPC: 1.967 cumulative IPC: 1.967 (Simulation time: 0 hr 0 min 3 sec) 

Warmup complete CPU 0 instructions: 1000003 cycles: 508391 (Simulation time: 0 hr 0 min 3 sec) 

Heartbeat CPU 0 instructions: 2000003 cycles: 1531413 heartbeat IPC: 0.977496 cumulative IPC: 0.977496 (Simulation time: 0 hr 0 min 7 sec) 
Heartbeat CPU 0 instructions: 3000003 cycles: 2520598 heartbeat IPC: 1.01093 cumulative IPC: 0.993933 (Simulation time: 0 hr 0 min 11 sec) 
Heartbeat CPU 0 instructions: 4000000 cycles: 3389946 heartbeat IPC: 1.15028 cumulative IPC: 1.0411 (Simulation time: 0 hr 0 min 14 sec) 
Heartbeat CPU 0 instructions: 5000001 cycles: 4265527 heartbeat IPC: 1.1421 cumulative IPC: 1.06464 (Simulation time: 0 hr 0 min 18 sec) 
Heartbeat CPU 0 instructions: 6000000 cycles: 5132596 heartbeat IPC: 1.15331 cumulative IPC: 1.08127 (Simulation time: 0 hr 0 min 21 sec) 
Heartbeat CPU 0 instructions: 7000000 cycles: 6084126 heartbeat IPC: 1.05094 cumulative IPC: 1.07609 (Simulation time: 0 hr 0 min 24 sec) 
Heartbeat CPU 0 instructions: 8000000 cycles: 7105247 heartbeat IPC: 0.979316 cumulative IPC: 1.06111 (Simulation time: 0 hr 0 min 28 sec) 
Heartbeat CPU 0 instructions: 9000000 cycles: 8047831 heartbeat IPC: 1.06091 cumulative IPC: 1.06109 (Simulation time: 0 hr 0 min 31 sec) 
Heartbeat CPU 0 instructions: 10000002 cycles: 8909083 heartbeat IPC: 1.1611 cumulative IPC: 1.07134 (Simulation time: 0 hr 0 min 34 sec) 
Heartbeat CPU 0 instructions: 11000003 cycles: 9776338 heartbeat IPC: 1.15306 cumulative IPC: 1.07899 (Simulation time: 0 hr 0 min 37 sec) 
Finished CPU 0 instructions: 10000000 cycles: 9267947 cummulative IPC: 1.07899 (Simulation time: 0 hr 0 min 37 sec) 

ChampSim completed all CPUs

Region of Interest Statistics

CPU 0 cummulative IPC: 1.07899 instructions: 10000000 cycles: 9267947
LLC TOTAL     ACCESS:      61903  HIT:      32447  MISS:      29456
LLC LOAD      ACCESS:      30249  HIT:      10862  MISS:      19387
LLC RFO       ACCESS:      15603  HIT:       5538  MISS:      10065
LLC PREFETCH  ACCESS:          0  HIT:          0  MISS:          0
LLC WRITEBACK ACCESS:      16051  HIT:      16047  MISS:          4

*** ChampSim Multicore Out-of-Order Simulator ***

Warmup Instructions: 1000000
Simulation Instructions: 10000000
Configuration: 1
Number of CPUs: 1
LLC sets: 2048
LLC ways: 16
Off-chip DRAM Channels: 1 Width: 64-bit Data Rate: 1600 MT/s

CPU 0 runs /datasets/cs240c-wi22-a00-public/data/Assignment2-gz/zeusmp_600B.trace.gz
Heartbeat CPU 0 instructions: 1000000 cycles: 407507 heartbeat IPC: 2.45395 cumulative IPC: 2.45395 (Simulation time: 0 hr 0 min 3 sec) 

Warmup complete CPU 0 instructions: 1000004 cycles: 407508 (Simulation time: 0 hr 0 min 3 sec) 

Heartbeat CPU 0 instructions: 2000001 cycles: 1276030 heartbeat IPC: 1.15138 cumulative IPC: 1.15138 (Simulation time: 0 hr 0 min 7 sec) 
Heartbeat CPU 0 instructions: 3000000 cycles: 2151898 heartbeat IPC: 1.14172 cumulative IPC: 1.14653 (Simulation time: 0 hr 0 min 10 sec) 
Heartbeat CPU 0 instructions: 4000000 cycles: 3021617 heartbeat IPC: 1.1498 cumulative IPC: 1.14762 (Simulation time: 0 hr 0 min 14 sec) 
Heartbeat CPU 0 instructions: 5000001 cycles: 3889497 heartbeat IPC: 1.15223 cumulative IPC: 1.14877 (Simulation time: 0 hr 0 min 17 sec) 
Heartbeat CPU 0 instructions: 6000000 cycles: 4758109 heartbeat IPC: 1.15126 cumulative IPC: 1.14927 (Simulation time: 0 hr 0 min 21 sec) 
Heartbeat CPU 0 instructions: 7000002 cycles: 5631381 heartbeat IPC: 1.14512 cumulative IPC: 1.14857 (Simulation time: 0 hr 0 min 24 sec) 
Heartbeat CPU 0 instructions: 8000000 cycles: 6501126 heartbeat IPC: 1.14976 cumulative IPC: 1.14874 (Simulation time: 0 hr 0 min 28 sec) 
Heartbeat CPU 0 instructions: 9000000 cycles: 7374520 heartbeat IPC: 1.14496 cumulative IPC: 1.14827 (Simulation time: 0 hr 0 min 32 sec) 
Heartbeat CPU 0 instructions: 10000002 cycles: 8246420 heartbeat IPC: 1.14692 cumulative IPC: 1.14812 (Simulation time: 0 hr 0 min 35 sec) 
Heartbeat CPU 0 instructions: 11000000 cycles: 9119574 heartbeat IPC: 1.14527 cumulative IPC: 1.14783 (Simulation time: 0 hr 0 min 39 sec) 
Finished CPU 0 instructions: 10000000 cycles: 8712069 cummulative IPC: 1.14783 (Simulation time: 0 hr 0 min 39 sec) 

ChampSim completed all CPUs

Region of Interest Statistics

CPU 0 cummulative IPC: 1.14783 instructions: 10000000 cycles: 8712069
LLC TOTAL     ACCESS:      40963  HIT:       9625  MISS:      31338
LLC LOAD      ACCESS:      29110  HIT:       3715  MISS:      25395
LLC RFO       ACCESS:       5942  HIT:          0  MISS:       5942
LLC PREFETCH  ACCESS:          0  HIT:          0  MISS:          0
LLC WRITEBACK ACCESS:       5911  HIT:       5910  MISS:          1
